****|SAP-35|mol2|1|dock7
XX    ILIB07122309383D

 44 47  0  0  1  0              1 V2000
   36.0017   -5.8167   39.7512 S   0  0  0  0  0
   34.5932   -4.8763   40.0703 C   0  0  0  0  0
   34.0574   -4.3448   38.8955 C   0  0  0  0  0
   34.8369   -4.7236   37.7510 C   0  0  0  0  0
   35.9145   -5.5141   38.0755 C   0  0  0  0  0
   36.6570   -5.9289   37.4077 H   0  0  0  0  0
   34.6125   -4.4205   36.7360 H   0  0  0  0  0
   32.8914   -3.5459   38.9923 C   0  0  0  0  0
   32.2954   -3.2790   40.2389 C   0  0  0  0  0
   32.8603   -3.8290   41.3907 C   0  0  0  0  0
   34.0030   -4.6320   41.3237 C   0  0  0  0  0
   34.4318   -5.0538   42.2285 H   0  0  0  0  0
   32.4177   -3.6368   42.3669 H   0  0  0  0  0
   31.0647   -2.4085   40.3352 C   0  0  0  0  0
   30.2047   -2.2871   38.7394 S   0  0  0  0  0
   30.8630   -0.7925   38.1744 C   0  0  0  0  0
   29.9994   -0.0744   37.4425 N   0  0  0  0  0
   30.3791    1.1259   36.9455 C   0  0  0  0  0
   29.5681    1.8004   36.3203 O   0  0  0  0  0
   31.6599    1.5230   37.1628 N   0  0  0  0  0
   32.4274    0.7651   37.8601 C   0  0  0  0  0
   34.0810    1.2792   38.1045 S   0  0  0  0  0
   34.8595   -0.3085   37.7110 C   0  0  0  0  0
   36.3636   -0.2306   37.7940 C   0  0  0  0  0
   37.1001   -1.3114   38.2971 C   0  0  0  0  0
   38.4862   -1.2352   38.3719 C   0  0  0  0  0
   39.1769   -2.2699   38.8673 F   0  0  0  0  0
   39.1673   -0.1013   37.9478 C   0  0  0  0  0
   38.4558    0.9884   37.4260 C   0  0  0  0  0
   37.0524    0.9134   37.3549 C   0  0  0  0  0
   36.4906    1.7556   36.9490 H   0  0  0  0  0
   39.1977    2.2213   36.9740 C   0  0  0  0  0
   38.7209    3.3609   37.5462 F   0  0  0  0  0
   40.5290    2.1886   37.2602 F   0  0  0  0  0
   39.1099    2.4121   35.6289 F   0  0  0  0  0
   40.2518   -0.0767   38.0245 H   0  0  0  0  0
   36.6062   -2.2193   38.6344 H   0  0  0  0  0
   34.5698   -0.6279   36.7028 H   0  0  0  0  0
   34.4865   -1.0750   38.4005 H   0  0  0  0  0
   32.0649   -0.4241   38.4136 N   0  0  0  0  0
   29.0559   -0.3850   37.2757 H   0  0  0  0  0
   30.3834   -2.8273   41.0851 H   0  0  0  0  0
   31.3454   -1.4073   40.6800 H   0  0  0  0  0
   32.4670   -3.1239   38.0839 H   0  0  0  0  0
  1  2  1  0  0  0
  1  5  1  0  0  0
  2  3  2  0  0  0
  2 11  1  0  0  0
  3  4  1  0  0  0
  3  8  1  0  0  0
  4  5  2  0  0  0
  4  7  1  0  0  0
  5  6  1  0  0  0
  8  9  2  0  0  0
  8 44  1  0  0  0
  9 10  1  0  0  0
  9 14  1  0  0  0
 10 11  2  0  0  0
 10 13  1  0  0  0
 11 12  1  0  0  0
 14 15  1  0  0  0
 14 42  1  0  0  0
 14 43  1  0  0  0
 15 16  1  0  0  0
 16 17  1  0  0  0
 16 40  2  0  0  0
 17 18  1  0  0  0
 17 41  1  0  0  0
 18 19  2  0  0  0
 18 20  1  0  0  0
 20 21  2  0  0  0
 21 22  1  0  0  0
 21 40  1  0  0  0
 22 23  1  0  0  0
 23 24  1  0  0  0
 23 38  1  0  0  0
 23 39  1  0  0  0
 24 25  2  0  0  0
 24 30  1  0  0  0
 25 26  1  0  0  0
 25 37  1  0  0  0
 26 27  1  0  0  0
 26 28  2  0  0  0
 28 29  1  0  0  0
 28 36  1  0  0  0
 29 30  2  0  0  0
 29 32  1  0  0  0
 30 31  1  0  0  0
 32 33  1  0  0  0
 32 34  1  0  0  0
 32 35  1  0  0  0
M  END
> <Gold.Goldscore.Fitness>
66.0202

> <Gold.Goldscore.External.HBond>
7.1318

> <Gold.Protein.ActiveResidues>
 GLU87   ILE88   VAL90   ASN91   ALA92   ASP94   ASN95   ARG98   ILE118  ASN120 
 LYS123  GLY124  ILE125  ILE141  PHE142  THR147  SER148  SER149  ASN150  LYS157 
 THR159  GLY160  GLY161  ARG162  ASN163  GLY164  TYR165  GLY166  ALA167  LYS168 
 THR215  ILE217  GLN376  ILE33   TYR34   MG903  

> <Gold.Protein.RotatedWaterAtoms>
   32.4470    2.9410   36.3270 O.3 0  0  0  0  0  0  0  0  0  0  0  0  # atno 1    bound_to 2    3    AM1 OFF
   31.8359    3.0941   37.0946 H   0  0  0  0  0  0  0  0  0  0  0  0  # atno 2    bound_to 1    AM1 OFF
   31.9233    2.6242   35.5451 H   0  0  0  0  0  0  0  0  0  0  0  0  # atno 3    bound_to 1    AM1 OFF
   33.1269    2.2507   36.5746 LP  0  0  0  0  0  0  0  0  0  0  0  0  # atno 4    bound_to 1    AM1 OFF
   32.9099    3.7962   36.0938 LP  0  0  0  0  0  0  0  0  0  0  0  0  # atno 5    boun

> <Gold.Goldscore.Internal.HBond>
0.0

> <Gold.Goldscore.Internal.Torsion.Weighted>
-3.561

> <Gold.Protein.RotatedTorsions>
[ 7484 1497 1496 1493 ] final -108.15 input   60.00 | X-H torsion
[ 9179 2997 2996 2994 ] final  -52.84 input   60.00 | X-H torsion
[ 6913  975  974  971 ] final  -82.68 input   60.00 | X-H torsion
[ 6967 1046 1045 1044 ] final  -95.30 input   60.00 | X-H torsion
[ 6909  969  968  965 ] final   98.88 input   59.99 | X-H torsion

> <Gold.Goldscore.Constraint.Score>
0.0

> <Gold.Id.Protein>
1ZXM|1ZXM_protein|mol2

> <Gold.Protein.RotatedAtoms>
   41.4288   -2.0685   38.3092 H   0  0  0  0  0  0  0  0  0  0  0  0  # atno 6909 bound_to 969 
   37.9862   -3.8673   40.5387 H   0  0  0  0  0  0  0  0  0  0  0  0  # atno 6913 bound_to 975 
   40.2006   -9.0468   40.8017 H   0  0  0  0  0  0  0  0  0  0  0  0  # atno 6967 bound_to 1046
   39.1096   -8.3546   39.7634 H   0  0  0  0  0  0  0  0  0  0  0  0  # atno 6968 bound_to 1046
   38.5752   -9.1830   41.0960 H   0  0  0  0  0  0  0  0  0  0  0  0  # atno 6969 bound_to 1046
   28.1768    0.0826   41.7

> <Gold.Version>
5.3.0

> <Gold.Goldscore.Internal.Correction>
4.3684

> <Gold.Goldscore.Internal.Vdw>
0.6917

> <Gold.Goldscore.Internal.Vdw.Weighted>
0.6917

> <Gold.Goldscore.External.HBond.Weighted>
7.1318

> <Gold.Goldscore.External.Vdw.Weighted>
71.1262

> <Gold.Goldscore.Internal.HBond.Weighted>
0.0

> <Gold.Goldscore.Hbonds>
donor molecule, donor type, donor heavy atom, donor atom, acceptor molecule, acceptor atom, score
      P1  H   758  6690      AM2     1  0.87
      L1  H     9    34       P1   757  0.78
     AM2  H     1     2       P1   774  0.92
     AM2  H     1     3       P1  1497  0.99

> <Gold.Goldscore.External.Vdw>
51.7282

> <Gold.Goldscore.Internal.Torsion>
-3.561

> <Gold.Goldscore.Internal.Correction.Weighted>
4.3684

> <Gold.Goldscore.SBar>
-5.0

$$$$
