****|SGG-4|mol2|1|dock3
XX    ILIB03142300123D

 46 48  0  0  1  0              1 V2000
   32.7345   -2.9614   41.3041 S   0  0  0  0  0
   33.7731   -4.1369   40.6034 C   0  0  0  0  0
   33.4772   -4.4922   39.3721 N   0  0  0  0  0
   32.3622   -3.7992   38.9452 C   0  0  0  0  0
   31.8142   -2.9154   39.8554 C   0  0  0  0  0
   30.6059   -2.0438   39.7358 C   0  0  0  0  0
   29.9069   -2.1174   38.0547 S   0  0  0  0  0
   30.3200   -0.4969   37.5128 C   0  0  0  0  0
   29.3880    0.2260   36.7838 N   0  0  0  0  0
   29.6983    1.5037   36.3348 C   0  0  0  0  0
   28.7616    2.2436   35.6096 O   0  0  0  0  0
   30.9049    2.0168   36.5944 N   0  0  0  0  0
   31.7521    1.2542   37.2960 C   0  0  0  0  0
   33.3703    1.9224   37.5753 S   0  0  0  0  0
   34.1598    0.3622   38.0478 C   0  0  0  0  0
   35.6206    0.3240   37.6771 C   0  0  0  0  0
   36.1562   -0.7628   36.9759 C   0  0  0  0  0
   37.5055   -0.7781   36.6086 C   0  0  0  0  0
   38.3545    0.2846   36.9483 C   0  0  0  0  0
   37.8164    1.3658   37.6608 C   0  0  0  0  0
   36.4674    1.3847   38.0236 C   0  0  0  0  0
   36.0798    2.2374   38.5776 H   0  0  0  0  0
   38.4450    2.2098   37.9371 H   0  0  0  0  0
   39.8163    0.3162   36.5372 C   0  0  0  0  0
   39.9493    0.7165   35.0663 C   0  0  0  0  0
   39.4791   -0.0176   34.4027 H   0  0  0  0  0
   39.4744    1.6863   34.8794 H   0  0  0  0  0
   41.0036    0.8011   34.7821 H   0  0  0  0  0
   40.5475   -1.0013   36.8088 C   0  0  0  0  0
   40.2295   -1.7983   36.1282 H   0  0  0  0  0
   40.3728   -1.3430   37.8348 H   0  0  0  0  0
   41.6275   -0.8719   36.6776 H   0  0  0  0  0
   40.3253    1.0828   37.1371 H   0  0  0  0  0
   37.8811   -1.6295   36.0464 H   0  0  0  0  0
   35.5248   -1.6051   36.7015 H   0  0  0  0  0
   33.6530   -0.4803   37.5614 H   0  0  0  0  0
   34.0439    0.2151   39.1282 H   0  0  0  0  0
   31.5200    0.0239   37.7691 N   0  0  0  0  0
   28.4863   -0.1839   36.5845 H   0  0  0  0  0
   29.8498   -2.3862   40.4522 H   0  0  0  0  0
   30.8495   -1.0031   39.9756 H   0  0  0  0  0
   31.9859   -3.9807   37.9452 H   0  0  0  0  0
   34.9064   -4.6957   41.3889 C   0  0  0  0  0
   35.5538   -3.8899   41.7499 H   0  0  0  0  0
   35.5089   -5.3617   40.7632 H   0  0  0  0  0
   34.5523   -5.2570   42.2594 H   0  0  0  0  0
  1  2  1  0  0  0
  1  5  1  0  0  0
  2  3  2  0  0  0
  2 43  1  0  0  0
  3  4  1  0  0  0
  4  5  2  0  0  0
  4 42  1  0  0  0
  5  6  1  0  0  0
  6  7  1  0  0  0
  6 40  1  0  0  0
  6 41  1  0  0  0
  7  8  1  0  0  0
  8  9  1  0  0  0
  8 38  2  0  0  0
  9 10  1  0  0  0
  9 39  1  0  0  0
 10 11  2  0  0  0
 10 12  1  0  0  0
 12 13  2  0  0  0
 13 14  1  0  0  0
 13 38  1  0  0  0
 14 15  1  0  0  0
 15 16  1  0  0  0
 15 36  1  0  0  0
 15 37  1  0  0  0
 16 17  1  0  0  0
 16 21  2  0  0  0
 17 18  2  0  0  0
 17 35  1  0  0  0
 18 19  1  0  0  0
 18 34  1  0  0  0
 19 20  2  0  0  0
 19 24  1  0  0  0
 20 21  1  0  0  0
 20 23  1  0  0  0
 21 22  1  0  0  0
 24 25  1  0  0  0
 24 29  1  0  0  0
 24 33  1  0  0  0
 25 26  1  0  0  0
 25 27  1  0  0  0
 25 28  1  0  0  0
 29 30  1  0  0  0
 29 31  1  0  0  0
 29 32  1  0  0  0
 43 44  1  0  0  0
 43 45  1  0  0  0
 43 46  1  0  0  0
M  END
> <Gold.Goldscore.Fitness>
67.7756

> <Gold.Goldscore.External.HBond>
1.4847

> <Gold.Protein.ActiveResidues>
 GLU87   ILE88   VAL90   ASN91   ALA92   ASP94   ASN95   ARG98   ILE118  ASN120 
 LYS123  GLY124  ILE125  ILE141  PHE142  THR147  SER148  SER149  ASN150  TYR151 
 GLY160  GLY161  ARG162  ASN163  GLY164  TYR165  GLY166  ALA167  LYS168  LEU169 
 THR181  THR215  ILE217  ILE317  GLN376  LYS378  ILE33   TYR34   MG903  

> <Gold.Goldscore.Internal.HBond>
0.0

> <Gold.Goldscore.Internal.Torsion.Weighted>
-4.6232

> <Gold.Protein.RotatedTorsions>
[ 8833 2752 2751 2750 ] final  -92.65 input   60.00 | X-H torsion
[ 6906  969  968  965 ] final -179.89 input   59.99 | X-H torsion
[ 6910  975  974  971 ] final  -12.12 input   60.00 | X-H torsion
[ 6897  962  961  958 ] final   71.11 input   60.00 | X-H torsion
[ 9084 2997 2996 2994 ] final  -38.60 input   60.00 | X-H torsion
[ 7406 1497 1496 1493 ] final  170.76 input   60.00 | X-H torsion
[ 7140 1220 1219 1216 ] final  115.27 input   60.00 | X-H torsion
[ 6926  995  994  992 ] final   25.13 input   60.0

> <Gold.Goldscore.Constraint.Score>
0.0

> <Gold.Id.Protein>
1ZXM|1ZXM_protein|mol2

> <Gold.Protein.RotatedAtoms>
   40.6750    3.3830   41.8637 H   0  0  0  0  0  0  0  0  0  0  0  0  # atno 6897 bound_to 962 
   42.5663   -2.5035   38.2571 H   0  0  0  0  0  0  0  0  0  0  0  0  # atno 6906 bound_to 969 
   38.8111   -4.3840   40.0676 H   0  0  0  0  0  0  0  0  0  0  0  0  # atno 6910 bound_to 975 
   45.8911    1.1244   38.6740 H   0  0  0  0  0  0  0  0  0  0  0  0  # atno 6926 bound_to 995 
   28.0475    0.1168   43.0607 H   0  0  0  0  0  0  0  0  0  0  0  0  # atno 7140 bound_to 1220
   28.2838   -0.9017   41.0

> <Gold.Version>
5.3.0

> <Gold.Goldscore.Internal.Correction>
-0.0166

> <Gold.Goldscore.Internal.Vdw>
-1.3472

> <Gold.Goldscore.Internal.Vdw.Weighted>
-1.3472

> <Gold.Goldscore.External.HBond.Weighted>
1.4847

> <Gold.Goldscore.External.Vdw.Weighted>
72.2447

> <Gold.Goldscore.Internal.HBond.Weighted>
0.0

> <Gold.Goldscore.Hbonds>
donor molecule, donor type, donor heavy atom, donor atom, acceptor molecule, acceptor atom, score
      L1  H     1    27       P1   757  0.74

> <Gold.Goldscore.External.Vdw>
52.5416

> <Gold.Goldscore.Internal.Torsion>
-4.6232

> <Gold.Goldscore.Internal.Correction.Weighted>
-0.0166

$$$$
