****|SGG-4|sdf|1|dock4
  -GOLD-   9 72315253D 1   1.00000     0.00000

 46 48  0  0  0  0  0  0  0  0  1 V2000
   62.2593   15.5122   30.0927 S   0  0  0  0  0  0  0  0  0  0  0  0
   61.6193   14.1923   29.1985 C   0  0  0  0  0  0  0  0  0  0  0  0
   62.1952   13.0297   29.4143 N   0  0  0  0  0  0  0  0  0  0  0  0
   63.2066   13.1787   30.3419 C   0  0  0  0  0  0  0  0  0  0  0  0
   63.3951   14.4574   30.8311 C   0  0  0  0  0  0  0  0  0  0  0  0
   64.4058   14.9709   31.8051 C   0  0  0  0  0  0  0  0  0  0  0  0
   64.3425   16.7883   31.9203 S   0  0  0  0  0  0  0  0  0  0  0  0
   65.3546   17.1877   30.5395 C   0  0  0  0  0  0  0  0  0  0  0  0
   65.0589   16.6290   29.3054 N   0  0  0  0  0  0  0  0  0  0  0  0
   65.8531   16.9212   28.2035 C   0  0  0  0  0  0  0  0  0  0  0  0
   65.5561   16.3720   26.9542 O   0  0  0  0  0  0  0  0  0  0  0  0
   66.9105   17.7256   28.3500 N   0  0  0  0  0  0  0  0  0  0  0  0
   67.1350   18.2184   29.5740 C   0  0  0  0  0  0  0  0  0  0  0  0
   68.5781   19.2302   29.7658 S   0  0  0  0  0  0  0  0  0  0  0  0
   69.4146   18.6863   28.2541 C   0  0  0  0  0  0  0  0  0  0  0  0
   69.7527   17.2174   28.2832 C   0  0  0  0  0  0  0  0  0  0  0  0
   70.2585   16.5735   27.1477 C   0  0  0  0  0  0  0  0  0  0  0  0
   70.5986   15.2177   27.1902 C   0  0  0  0  0  0  0  0  0  0  0  0
   70.4253   14.4700   28.3635 C   0  0  0  0  0  0  0  0  0  0  0  0
   69.9075   15.1163   29.4951 C   0  0  0  0  0  0  0  0  0  0  0  0
   69.5724   16.4720   29.4554 C   0  0  0  0  0  0  0  0  0  0  0  0
   69.1713   16.9449   30.3497 H   0  0  0  0  0  0  0  0  0  0  0  0
   69.7642   14.5683   30.4240 H   0  0  0  0  0  0  0  0  0  0  0  0
   70.8147   13.0048   28.4547 C   0  0  0  0  0  0  0  0  0  0  0  0
   71.3964   12.5225   27.1241 C   0  0  0  0  0  0  0  0  0  0  0  0
   70.6578   12.5747   26.3166 H   0  0  0  0  0  0  0  0  0  0  0  0
   72.2569   13.1332   26.8280 H   0  0  0  0  0  0  0  0  0  0  0  0
   71.7358   11.4843   27.2038 H   0  0  0  0  0  0  0  0  0  0  0  0
   69.6622   12.1015   28.9019 C   0  0  0  0  0  0  0  0  0  0  0  0
   68.8970   11.9933   28.1258 H   0  0  0  0  0  0  0  0  0  0  0  0
   69.1783   12.4984   29.8009 H   0  0  0  0  0  0  0  0  0  0  0  0
   70.0335   11.0977   29.1361 H   0  0  0  0  0  0  0  0  0  0  0  0
   71.6003   12.9050   29.2160 H   0  0  0  0  0  0  0  0  0  0  0  0
   71.0082   14.7566   26.2948 H   0  0  0  0  0  0  0  0  0  0  0  0
   70.4003   17.1245   26.2206 H   0  0  0  0  0  0  0  0  0  0  0  0
   70.3407   19.2560   28.1088 H   0  0  0  0  0  0  0  0  0  0  0  0
   68.7740   18.9059   27.3917 H   0  0  0  0  0  0  0  0  0  0  0  0
   66.4097   17.9909   30.6757 N   0  0  0  0  0  0  0  0  0  0  0  0
   64.2641   16.0114   29.2169 H   0  0  0  0  0  0  0  0  0  0  0  0
   64.1955   14.5430   32.7925 H   0  0  0  0  0  0  0  0  0  0  0  0
   65.4174   14.6668   31.5153 H   0  0  0  0  0  0  0  0  0  0  0  0
   63.7838   12.3076   30.6294 H   0  0  0  0  0  0  0  0  0  0  0  0
   60.4994   14.4099   28.2435 C   0  0  0  0  0  0  0  0  0  0  0  0
   59.6499   14.8769   28.7524 H   0  0  0  0  0  0  0  0  0  0  0  0
   60.1640   13.4541   27.8289 H   0  0  0  0  0  0  0  0  0  0  0  0
   60.7978   15.0649   27.4187 H   0  0  0  0  0  0  0  0  0  0  0  0
  1  2  1  0  0  0  0
  1  5  1  0  0  0  0
  2  3  2  0  0  0  0
  2 43  1  0  0  0  0
  3  4  1  0  0  0  0
  4  5  2  0  0  0  0
  4 42  1  0  0  0  0
  5  6  1  0  0  0  0
  6  7  1  0  0  0  0
  6 40  1  0  0  0  0
  6 41  1  0  0  0  0
  7  8  1  0  0  0  0
  8  9  1  0  0  0  0
  8 38  2  0  0  0  0
  9 10  1  0  0  0  0
  9 39  1  0  0  0  0
 10 11  2  0  0  0  0
 10 12  1  0  0  0  0
 12 13  2  0  0  0  0
 13 14  1  0  0  0  0
 13 38  1  0  0  0  0
 14 15  1  0  0  0  0
 15 16  1  0  0  0  0
 15 36  1  0  0  0  0
 15 37  1  0  0  0  0
 16 17  1  0  0  0  0
 16 21  2  0  0  0  0
 17 18  2  0  0  0  0
 17 35  1  0  0  0  0
 18 19  1  0  0  0  0
 18 34  1  0  0  0  0
 19 20  2  0  0  0  0
 19 24  1  0  0  0  0
 20 21  1  0  0  0  0
 20 23  1  0  0  0  0
 21 22  1  0  0  0  0
 24 25  1  0  0  0  0
 24 29  1  0  0  0  0
 24 33  1  0  0  0  0
 25 26  1  0  0  0  0
 25 27  1  0  0  0  0
 25 28  1  0  0  0  0
 29 30  1  0  0  0  0
 29 31  1  0  0  0  0
 29 32  1  0  0  0  0
 43 44  1  0  0  0  0
 43 45  1  0  0  0  0
 43 46  1  0  0  0  0
M  END
> <Gold.Goldscore.Fitness>
67.7756

> <Gold.Goldscore.External.HBond>
1.4847

> <Gold.Protein.ActiveResidues>
 GLU87   ILE88   VAL90   ASN91   ALA92   ASP94   ASN95   ARG98   ILE118  ASN120 
 LYS123  GLY124  ILE125  ILE141  PHE142  THR147  SER148  SER149  ASN150  TYR151 
 GLY160  GLY161  ARG162  ASN163  GLY164  TYR165  GLY166  ALA167  LYS168  LEU169 
 THR181  THR215  ILE217  ILE317  GLN376  LYS378  ILE33   TYR34   MG903  

> <Gold.Goldscore.Internal.HBond>
0.0

> <Gold.Goldscore.Internal.Torsion.Weighted>
-4.6232

> <Gold.Protein.RotatedTorsions>
[ 8833 2752 2751 2750 ] final  -92.65 input   60.00 | X-H torsion
[ 6906  969  968  965 ] final -179.89 input   59.99 | X-H torsion
[ 6910  975  974  971 ] final  -12.12 input   60.00 | X-H torsion
[ 6897  962  961  958 ] final   71.11 input   60.00 | X-H torsion
[ 9084 2997 2996 2994 ] final  -38.60 input   60.00 | X-H torsion
[ 7406 1497 1496 1493 ] final  170.76 input   60.00 | X-H torsion
[ 7140 1220 1219 1216 ] final  115.27 input   60.00 | X-H torsion
[ 6926  995  994  992 ] final   25.13 input   60.0

> <Gold.Goldscore.Constraint.Score>
0.0

> <Gold.Id.Protein>
1ZXM|1ZXM_protein|mol2

> <Gold.Protein.RotatedAtoms>
   40.6750    3.3830   41.8637 H   0  0  0  0  0  0  0  0  0  0  0  0  # atno 6897 bound_to 962 
   42.5663   -2.5035   38.2571 H   0  0  0  0  0  0  0  0  0  0  0  0  # atno 6906 bound_to 969 
   38.8111   -4.3840   40.0676 H   0  0  0  0  0  0  0  0  0  0  0  0  # atno 6910 bound_to 975 
   45.8911    1.1244   38.6740 H   0  0  0  0  0  0  0  0  0  0  0  0  # atno 6926 bound_to 995 
   28.0475    0.1168   43.0607 H   0  0  0  0  0  0  0  0  0  0  0  0  # atno 7140 bound_to 1220
   28.2838   -0.9017   41.0

> <Gold.Version>
5.3.0

> <Gold.Goldscore.Internal.Correction>
-0.0166

> <Gold.Goldscore.Internal.Vdw>
-1.3472

> <Gold.Goldscore.Internal.Vdw.Weighted>
-1.3472

> <Gold.Goldscore.External.HBond.Weighted>
1.4847

> <Gold.Goldscore.External.Vdw.Weighted>
72.2447

> <Gold.Goldscore.Internal.HBond.Weighted>
0.0

> <Gold.Goldscore.Hbonds>
donor molecule, donor type, donor heavy atom, donor atom, acceptor molecule, acceptor atom, score
      L1  H     1    27       P1   757  0.74

> <Gold.Goldscore.External.Vdw>
52.5416

> <Gold.Goldscore.Internal.Torsion>
-4.6232

> <Gold.Goldscore.Internal.Correction.Weighted>
-0.0166

> <Gold.Version>
5.3.0

> <Gold.Id.Protein>
1ZXM_2|1ZXM_2_protein|mol2

> <Gold.PLP.Fitness>
73.4588

> <Gold.PLP.PLP>
-68.7120

> <Gold.PLP.part.hbond>
0.0000

> <Gold.PLP.part.metal>
-0.9649

> <Gold.PLP.part.buried>
-6.2439

> <Gold.PLP.part.nonpolar>
-61.9695

> <Gold.PLP.part.repulsive>
0.1162

> <Gold.PLP.ligand.clash>
0.0000

> <Gold.PLP.ligand.torsion>
0.5573

> <Gold.PLP.Chemscore.Hbond>
0.0000

> <Gold.PLP.Chemscore.CHOScore>
0.0000

> <Gold.PLP.Chemscore.Metal>
0.9399

> <Gold.Chemscore.Hbonds>
donor molecule, donor type, donor heavy atom, donor atom, acceptor molecule, acceptor atom, score
      P1  M  5931  5931       L1     3  0.94

> <Gold.PLP.Chemscore.Internal.Correction>
0.2217

> <Gold.Protein.RotatedTorsions>
[ 10122 3921 3920 3917 ] final  153.75 input   60.00 | X-H torsion
[ 10128 3927 3926 3923 ] final  -30.57 input   60.00 | X-H torsion
[ 10117 3914 3913 3910 ] final  179.76 input   60.00 | X-H torsion
[ 6043   53   52   50 ] final  -35.95 input   60.00 | X-H torsion
[ 10611 4448 4447 4444 ] final  134.02 input   60.00 | X-H torsion
[ 10364 4172 4171 4168 ] final  148.51 input   60.00 | X-H torsion
[ 10142 3947 3946 3944 ] final  -92.06 input   60.00 | X-H torsion

> <Gold.Protein.ActiveResidues>
 ILE33   TYR34   GLU87   ILE88   VAL90   ASN91   ALA92   ASP94   ASN95   ARG98  
 ILE118  ASN120  LYS123  GLY124  ILE125  ILE141  PHE142  THR147  SER148  SER149 
 ASN150  TYR151  GLY160  GLY161  ARG162  ASN163  GLY164  TYR165  GLY166  ALA167 
 LYS168  LEU169  THR181  THR215  ILE217  ILE317  GLN376  LYS378  MG904  

> <Gold.Protein.RotatedAtoms>
   68.2309   21.5178   31.3510 H   0  0  0  0  0  0  0  0  0  0  0  0  # atno 6043 bound_to 53  
   62.3861   14.6605   36.8421 H   0  0  0  0  0  0  0  0  0  0  0  0  # atno 10117 bound_to 3914
   59.2414   17.3078   29.3976 H   0  0  0  0  0  0  0  0  0  0  0  0  # atno 10122 bound_to 3921
   62.9446   19.8544   29.0558 H   0  0  0  0  0  0  0  0  0  0  0  0  # atno 10128 bound_to 3927
   55.4349   15.5043   33.8668 H   0  0  0  0  0  0  0  0  0  0  0  0  # atno 10142 bound_to 3947
   73.9461   17.8716   31.8264 H   0  0  0  0  0  0  0  0  0  0  0  0  # atno 10364 bound_to 4172
   73.7851   17.2983   29.0740 H   0  0  0  0  0  0  0  0  0  0  0  0  # atno 10611 bound_to 4448
   60.6359   18.0404   29.8059 LP  0  0  0  0  0  0  0  0  0  0  0  0  # atno 12016 bound_to 3921
   59.2233   18.8534   29.9066 LP  0  0  0  0  0  0  0  0  0  0  0  0  # atno 12017 bound_to 3921
   64.4252   20.5294   29.0727 LP  0  0  0  0  0  0  0  0  0  0  0  0  # atno 12018 bound_to 3927
   63.2381   21.1809   28.1600 LP  0  0  0  0  0  0  0  0  0  0  0  0  # atno 12019 bound_to 3927
   61.8593   14.6736   35.3026 LP  0  0  0  0  0  0  0  0  0  0  0  0  # atno 12024 bound_to 3914
   60.8934   14.1139   36.4944 LP  0  0  0  0  0  0  0  0  0  0  0  0  # atno 12025 bound_to 3914
   68.5585   23.0633   31.7409 LP  0  0  0  0  0  0  0  0  0  0  0  0  # atno 12032 bound_to 53  
   67.4182   22.7245   30.6221 LP  0  0  0  0  0  0  0  0  0  0  0  0  # atno 12033 bound_to 53  
   75.1940   17.3166   29.8880 LP  0  0  0  0  0  0  0  0  0  0  0  0  # atno 12042 bound_to 4448
   73.8328   16.7865   30.6179 LP  0  0  0  0  0  0  0  0  0  0  0  0  # atno 12043 bound_to 4448
   75.5405   17.8823   31.5007 LP  0  0  0  0  0  0  0  0  0  0  0  0  # atno 12050 bound_to 4172
   74.9198   18.9282   32.5905 LP  0  0  0  0  0  0  0  0  0  0  0  0  # atno 12051 bound_to 4172

$$$$
****|SGG-4|sdf|1|dock10
  -GOLD-   9 72315253D 1   1.00000     0.00000

 46 48  0  0  0  0  0  0  0  0  1 V2000
   61.6253   13.0189   29.1918 S   0  0  0  0  0  0  0  0  0  0  0  0
   60.1703   13.1810   28.2929 C   0  0  0  0  0  0  0  0  0  0  0  0
   59.7921   14.4161   28.0452 N   0  0  0  0  0  0  0  0  0  0  0  0
   60.7008   15.2979   28.5952 C   0  0  0  0  0  0  0  0  0  0  0  0
   61.7707   14.7283   29.2590 C   0  0  0  0  0  0  0  0  0  0  0  0
   62.9021   15.3788   29.9875 C   0  0  0  0  0  0  0  0  0  0  0  0
   64.5094   14.8445   29.3156 S   0  0  0  0  0  0  0  0  0  0  0  0
   65.0914   16.3951   28.7264 C   0  0  0  0  0  0  0  0  0  0  0  0
   64.4458   16.9920   27.6542 N   0  0  0  0  0  0  0  0  0  0  0  0
   64.8969   18.2114   27.1644 C   0  0  0  0  0  0  0  0  0  0  0  0
   64.2458   18.8255   26.0921 O   0  0  0  0  0  0  0  0  0  0  0  0
   65.9658   18.7889   27.7216 N   0  0  0  0  0  0  0  0  0  0  0  0
   66.5392   18.1466   28.7465 C   0  0  0  0  0  0  0  0  0  0  0  0
   67.9942   18.8926   29.4316 S   0  0  0  0  0  0  0  0  0  0  0  0
   69.1098   18.4565   28.0730 C   0  0  0  0  0  0  0  0  0  0  0  0
   69.5400   17.0125   28.1260 C   0  0  0  0  0  0  0  0  0  0  0  0
   70.4632   16.5032   27.2052 C   0  0  0  0  0  0  0  0  0  0  0  0
   70.8810   15.1705   27.2786 C   0  0  0  0  0  0  0  0  0  0  0  0
   70.3730   14.3117   28.2635 C   0  0  0  0  0  0  0  0  0  0  0  0
   69.4397   14.8231   29.1765 C   0  0  0  0  0  0  0  0  0  0  0  0
   69.0256   16.1556   29.1075 C   0  0  0  0  0  0  0  0  0  0  0  0
   68.2988   16.5225   29.8296 H   0  0  0  0  0  0  0  0  0  0  0  0
   69.0280   14.1864   29.9568 H   0  0  0  0  0  0  0  0  0  0  0  0
   70.8289   12.8688   28.3928 C   0  0  0  0  0  0  0  0  0  0  0  0
   71.5045   12.4039   27.1009 C   0  0  0  0  0  0  0  0  0  0  0  0
   70.8088   12.4115   26.2546 H   0  0  0  0  0  0  0  0  0  0  0  0
   72.3484   13.0541   26.8439 H   0  0  0  0  0  0  0  0  0  0  0  0
   71.8902   11.3847   27.2110 H   0  0  0  0  0  0  0  0  0  0  0  0
   69.7001   11.9130   28.7886 C   0  0  0  0  0  0  0  0  0  0  0  0
   68.9841   11.7595   27.9742 H   0  0  0  0  0  0  0  0  0  0  0  0
   69.1495   12.2936   29.6558 H   0  0  0  0  0  0  0  0  0  0  0  0
   70.1075   10.9313   29.0542 H   0  0  0  0  0  0  0  0  0  0  0  0
   71.5764   12.8154   29.1960 H   0  0  0  0  0  0  0  0  0  0  0  0
   71.6151   14.8160   26.5593 H   0  0  0  0  0  0  0  0  0  0  0  0
   70.8726   17.1426   26.4261 H   0  0  0  0  0  0  0  0  0  0  0  0
   70.0051   19.0897   28.1010 H   0  0  0  0  0  0  0  0  0  0  0  0
   68.6103   18.6634   27.1191 H   0  0  0  0  0  0  0  0  0  0  0  0
   66.1552   16.9796   29.2775 N   0  0  0  0  0  0  0  0  0  0  0  0
   63.6483   16.5335   27.2362 H   0  0  0  0  0  0  0  0  0  0  0  0
   62.8140   16.4663   29.8802 H   0  0  0  0  0  0  0  0  0  0  0  0
   62.8660   15.1423   31.0565 H   0  0  0  0  0  0  0  0  0  0  0  0
   60.5308   16.3621   28.4801 H   0  0  0  0  0  0  0  0  0  0  0  0
   59.4184   11.9709   27.8639 C   0  0  0  0  0  0  0  0  0  0  0  0
   60.0659   11.3059   27.2831 H   0  0  0  0  0  0  0  0  0  0  0  0
   58.5702   12.2558   27.2335 H   0  0  0  0  0  0  0  0  0  0  0  0
   59.0429   11.4068   28.7236 H   0  0  0  0  0  0  0  0  0  0  0  0
  1  2  1  0  0  0  0
  1  5  1  0  0  0  0
  2  3  2  0  0  0  0
  2 43  1  0  0  0  0
  3  4  1  0  0  0  0
  4  5  2  0  0  0  0
  4 42  1  0  0  0  0
  5  6  1  0  0  0  0
  6  7  1  0  0  0  0
  6 40  1  0  0  0  0
  6 41  1  0  0  0  0
  7  8  1  0  0  0  0
  8  9  1  0  0  0  0
  8 38  2  0  0  0  0
  9 10  1  0  0  0  0
  9 39  1  0  0  0  0
 10 11  2  0  0  0  0
 10 12  1  0  0  0  0
 12 13  2  0  0  0  0
 13 14  1  0  0  0  0
 13 38  1  0  0  0  0
 14 15  1  0  0  0  0
 15 16  1  0  0  0  0
 15 36  1  0  0  0  0
 15 37  1  0  0  0  0
 16 17  1  0  0  0  0
 16 21  2  0  0  0  0
 17 18  2  0  0  0  0
 17 35  1  0  0  0  0
 18 19  1  0  0  0  0
 18 34  1  0  0  0  0
 19 20  2  0  0  0  0
 19 24  1  0  0  0  0
 20 21  1  0  0  0  0
 20 23  1  0  0  0  0
 21 22  1  0  0  0  0
 24 25  1  0  0  0  0
 24 29  1  0  0  0  0
 24 33  1  0  0  0  0
 25 26  1  0  0  0  0
 25 27  1  0  0  0  0
 25 28  1  0  0  0  0
 29 30  1  0  0  0  0
 29 31  1  0  0  0  0
 29 32  1  0  0  0  0
 43 44  1  0  0  0  0
 43 45  1  0  0  0  0
 43 46  1  0  0  0  0
M  END
> <Gold.Goldscore.Fitness>
67.7756

> <Gold.Goldscore.External.HBond>
1.4847

> <Gold.Protein.ActiveResidues>
 GLU87   ILE88   VAL90   ASN91   ALA92   ASP94   ASN95   ARG98   ILE118  ASN120 
 LYS123  GLY124  ILE125  ILE141  PHE142  THR147  SER148  SER149  ASN150  TYR151 
 GLY160  GLY161  ARG162  ASN163  GLY164  TYR165  GLY166  ALA167  LYS168  LEU169 
 THR181  THR215  ILE217  ILE317  GLN376  LYS378  ILE33   TYR34   MG903  

> <Gold.Goldscore.Internal.HBond>
0.0

> <Gold.Goldscore.Internal.Torsion.Weighted>
-4.6232

> <Gold.Protein.RotatedTorsions>
[ 8833 2752 2751 2750 ] final  -92.65 input   60.00 | X-H torsion
[ 6906  969  968  965 ] final -179.89 input   59.99 | X-H torsion
[ 6910  975  974  971 ] final  -12.12 input   60.00 | X-H torsion
[ 6897  962  961  958 ] final   71.11 input   60.00 | X-H torsion
[ 9084 2997 2996 2994 ] final  -38.60 input   60.00 | X-H torsion
[ 7406 1497 1496 1493 ] final  170.76 input   60.00 | X-H torsion
[ 7140 1220 1219 1216 ] final  115.27 input   60.00 | X-H torsion
[ 6926  995  994  992 ] final   25.13 input   60.0

> <Gold.Goldscore.Constraint.Score>
0.0

> <Gold.Id.Protein>
1ZXM|1ZXM_protein|mol2

> <Gold.Protein.RotatedAtoms>
   40.6750    3.3830   41.8637 H   0  0  0  0  0  0  0  0  0  0  0  0  # atno 6897 bound_to 962 
   42.5663   -2.5035   38.2571 H   0  0  0  0  0  0  0  0  0  0  0  0  # atno 6906 bound_to 969 
   38.8111   -4.3840   40.0676 H   0  0  0  0  0  0  0  0  0  0  0  0  # atno 6910 bound_to 975 
   45.8911    1.1244   38.6740 H   0  0  0  0  0  0  0  0  0  0  0  0  # atno 6926 bound_to 995 
   28.0475    0.1168   43.0607 H   0  0  0  0  0  0  0  0  0  0  0  0  # atno 7140 bound_to 1220
   28.2838   -0.9017   41.0

> <Gold.Version>
5.3.0

> <Gold.Goldscore.Internal.Correction>
-0.0166

> <Gold.Goldscore.Internal.Vdw>
-1.3472

> <Gold.Goldscore.Internal.Vdw.Weighted>
-1.3472

> <Gold.Goldscore.External.HBond.Weighted>
1.4847

> <Gold.Goldscore.External.Vdw.Weighted>
72.2447

> <Gold.Goldscore.Internal.HBond.Weighted>
0.0

> <Gold.Goldscore.Hbonds>
donor molecule, donor type, donor heavy atom, donor atom, acceptor molecule, acceptor atom, score
      L1  H     1    27       P1   757  0.74

> <Gold.Goldscore.External.Vdw>
52.5416

> <Gold.Goldscore.Internal.Torsion>
-4.6232

> <Gold.Goldscore.Internal.Correction.Weighted>
-0.0166

> <Gold.Version>
5.3.0

> <Gold.Id.Protein>
1ZXM_2|1ZXM_2_protein|mol2

> <Gold.PLP.Fitness>
71.9480

> <Gold.PLP.PLP>
-67.4583

> <Gold.PLP.part.hbond>
-3.3956

> <Gold.PLP.part.metal>
0.0000

> <Gold.PLP.part.buried>
-0.7382

> <Gold.PLP.part.nonpolar>
-64.0322

> <Gold.PLP.part.repulsive>
0.2311

> <Gold.PLP.ligand.clash>
0.0000

> <Gold.PLP.ligand.torsion>
1.2516

> <Gold.PLP.Chemscore.Hbond>
1.2811

> <Gold.PLP.Chemscore.CHOScore>
1.0000

> <Gold.PLP.Chemscore.Metal>
0.0000

> <Gold.Chemscore.Hbonds>
donor molecule, donor type, donor heavy atom, donor atom, acceptor molecule, acceptor atom, score
      P1  H  4021 10211       L1     3  0.11
      P1  H  4040 10228       L1     3  0.20
      P1  H  3935 10132       L1    11  0.98
      L1  C     4    42       P1  3921  1.00

> <Gold.PLP.Chemscore.Internal.Correction>
0.1498

> <Gold.Protein.RotatedTorsions>
[ 10122 3921 3920 3917 ] final -103.21 input   60.00 | X-H torsion
[ 10128 3927 3926 3923 ] final -132.73 input   60.00 | X-H torsion
[ 10117 3914 3913 3910 ] final  142.46 input   60.00 | X-H torsion
[ 6043   53   52   50 ] final -124.82 input   60.00 | X-H torsion
[ 10611 4448 4447 4444 ] final -145.30 input   60.00 | X-H torsion
[ 10364 4172 4171 4168 ] final  -92.39 input   60.00 | X-H torsion
[ 10142 3947 3946 3944 ] final  -44.35 input   60.00 | X-H torsion

> <Gold.Protein.ActiveResidues>
 ILE33   TYR34   GLU87   ILE88   VAL90   ASN91   ALA92   ASP94   ASN95   ARG98  
 ILE118  ASN120  LYS123  GLY124  ILE125  ILE141  PHE142  THR147  SER148  SER149 
 ASN150  TYR151  GLY160  GLY161  ARG162  ASN163  GLY164  TYR165  GLY166  ALA167 
 LYS168  LEU169  THR181  THR215  ILE217  ILE317  GLN376  LYS378  MG904  

> <Gold.Protein.RotatedAtoms>
   68.7253   22.6091   31.8828 H   0  0  0  0  0  0  0  0  0  0  0  0  # atno 6043 bound_to 53  
   62.5842   14.8190   36.2999 H   0  0  0  0  0  0  0  0  0  0  0  0  # atno 10117 bound_to 3914
   59.0132   18.6898   29.8295 H   0  0  0  0  0  0  0  0  0  0  0  0  # atno 10122 bound_to 3921
   64.3236   20.2961   29.2150 H   0  0  0  0  0  0  0  0  0  0  0  0  # atno 10128 bound_to 3927
   55.3812   15.2447   33.1575 H   0  0  0  0  0  0  0  0  0  0  0  0  # atno 10142 bound_to 3947
   74.9050   18.9215   32.5907 H   0  0  0  0  0  0  0  0  0  0  0  0  # atno 10364 bound_to 4172
   73.4213   16.8596   30.1437 H   0  0  0  0  0  0  0  0  0  0  0  0  # atno 10611 bound_to 4448
   59.4964   17.1995   29.3897 LP  0  0  0  0  0  0  0  0  0  0  0  0  # atno 12016 bound_to 3921
   60.5926   18.3025   29.8879 LP  0  0  0  0  0  0  0  0  0  0  0  0  # atno 12017 bound_to 3921
   63.5150   21.2695   28.1920 LP  0  0  0  0  0  0  0  0  0  0  0  0  # atno 12018 bound_to 3927
   62.7596   19.9959   28.8805 LP  0  0  0  0  0  0  0  0  0  0  0  0  # atno 12019 bound_to 3927
   61.3056   14.4436   35.3660 LP  0  0  0  0  0  0  0  0  0  0  0  0  # atno 12024 bound_to 3914
   61.2476   14.1844   36.9772 LP  0  0  0  0  0  0  0  0  0  0  0  0  # atno 12025 bound_to 3914
   67.6090   23.1458   30.8273 LP  0  0  0  0  0  0  0  0  0  0  0  0  # atno 12032 bound_to 53  
   67.8698   21.5430   30.9999 LP  0  0  0  0  0  0  0  0  0  0  0  0  # atno 12033 bound_to 53  
   74.3897   17.4579   28.9808 LP  0  0  0  0  0  0  0  0  0  0  0  0  # atno 12042 bound_to 4448
   75.0036   17.0870   30.4478 LP  0  0  0  0  0  0  0  0  0  0  0  0  # atno 12043 bound_to 4448
   73.9455   17.8613   31.8139 LP  0  0  0  0  0  0  0  0  0  0  0  0  # atno 12050 bound_to 4172
   75.5492   17.8919   31.5077 LP  0  0  0  0  0  0  0  0  0  0  0  0  # atno 12051 bound_to 4172

$$$$
****|SGG-4|sdf|1|dock8
  -GOLD-   9 72315253D 1   1.00000     0.00000

 46 48  0  0  0  0  0  0  0  0  1 V2000
   64.9006   22.4134   23.3397 S   0  0  0  0  0  0  0  0  0  0  0  0
   63.8497   23.7411   23.0495 C   0  0  0  0  0  0  0  0  0  0  0  0
   63.1070   24.1093   24.0707 N   0  0  0  0  0  0  0  0  0  0  0  0
   63.3764   23.2992   25.1555 C   0  0  0  0  0  0  0  0  0  0  0  0
   64.3272   22.3164   24.9551 C   0  0  0  0  0  0  0  0  0  0  0  0
   64.8271   21.2627   25.8898 C   0  0  0  0  0  0  0  0  0  0  0  0
   65.8889   20.0639   25.0205 S   0  0  0  0  0  0  0  0  0  0  0  0
   66.1933   18.9517   26.3474 C   0  0  0  0  0  0  0  0  0  0  0  0
   65.4443   17.7880   26.4343 N   0  0  0  0  0  0  0  0  0  0  0  0
   65.6597   16.9011   27.4819 C   0  0  0  0  0  0  0  0  0  0  0  0
   64.9179   15.7211   27.5711 O   0  0  0  0  0  0  0  0  0  0  0  0
   66.5769   17.1904   28.4101 N   0  0  0  0  0  0  0  0  0  0  0  0
   67.2525   18.3362   28.2614 C   0  0  0  0  0  0  0  0  0  0  0  0
   68.4184   18.7369   29.5355 S   0  0  0  0  0  0  0  0  0  0  0  0
   69.9084   18.3432   28.5839 C   0  0  0  0  0  0  0  0  0  0  0  0
   70.0765   16.8603   28.3701 C   0  0  0  0  0  0  0  0  0  0  0  0
   69.4546   15.9366   29.2184 C   0  0  0  0  0  0  0  0  0  0  0  0
   69.5899   14.5625   28.9964 C   0  0  0  0  0  0  0  0  0  0  0  0
   70.3636   14.0796   27.9317 C   0  0  0  0  0  0  0  0  0  0  0  0
   70.9943   15.0083   27.0914 C   0  0  0  0  0  0  0  0  0  0  0  0
   70.8555   16.3813   27.3090 C   0  0  0  0  0  0  0  0  0  0  0  0
   71.3585   17.0771   26.6403 H   0  0  0  0  0  0  0  0  0  0  0  0
   71.5986   14.6693   26.2526 H   0  0  0  0  0  0  0  0  0  0  0  0
   70.5053   12.5955   27.6417 C   0  0  0  0  0  0  0  0  0  0  0  0
   69.8440   11.7694   28.7471 C   0  0  0  0  0  0  0  0  0  0  0  0
   70.3342   11.9220   29.7150 H   0  0  0  0  0  0  0  0  0  0  0  0
   68.7887   12.0416   28.8619 H   0  0  0  0  0  0  0  0  0  0  0  0
   69.8892   10.7009   28.5112 H   0  0  0  0  0  0  0  0  0  0  0  0
   71.9576   12.1580   27.4330 C   0  0  0  0  0  0  0  0  0  0  0  0
   72.5315   12.1722   28.3658 H   0  0  0  0  0  0  0  0  0  0  0  0
   72.4648   12.8104   26.7140 H   0  0  0  0  0  0  0  0  0  0  0  0
   71.9952   11.1350   27.0425 H   0  0  0  0  0  0  0  0  0  0  0  0
   69.9777   12.3769   26.7033 H   0  0  0  0  0  0  0  0  0  0  0  0
   69.0752   13.8754   29.6636 H   0  0  0  0  0  0  0  0  0  0  0  0
   68.8512   16.2791   30.0563 H   0  0  0  0  0  0  0  0  0  0  0  0
   70.7980   18.7257   29.0992 H   0  0  0  0  0  0  0  0  0  0  0  0
   69.8620   18.8578   27.6168 H   0  0  0  0  0  0  0  0  0  0  0  0
   67.1077   19.2307   27.2764 N   0  0  0  0  0  0  0  0  0  0  0  0
   64.7451   17.5932   25.7315 H   0  0  0  0  0  0  0  0  0  0  0  0
   65.4081   21.7423   26.6864 H   0  0  0  0  0  0  0  0  0  0  0  0
   63.9934   20.7275   26.3572 H   0  0  0  0  0  0  0  0  0  0  0  0
   62.8416   23.4725   26.0821 H   0  0  0  0  0  0  0  0  0  0  0  0
   63.8095   24.3828   21.7078 C   0  0  0  0  0  0  0  0  0  0  0  0
   64.8109   24.7136   21.4135 H   0  0  0  0  0  0  0  0  0  0  0  0
   63.1536   25.2588   21.7265 H   0  0  0  0  0  0  0  0  0  0  0  0
   63.4470   23.6891   20.9426 H   0  0  0  0  0  0  0  0  0  0  0  0
  1  2  1  0  0  0  0
  1  5  1  0  0  0  0
  2  3  2  0  0  0  0
  2 43  1  0  0  0  0
  3  4  1  0  0  0  0
  4  5  2  0  0  0  0
  4 42  1  0  0  0  0
  5  6  1  0  0  0  0
  6  7  1  0  0  0  0
  6 40  1  0  0  0  0
  6 41  1  0  0  0  0
  7  8  1  0  0  0  0
  8  9  1  0  0  0  0
  8 38  2  0  0  0  0
  9 10  1  0  0  0  0
  9 39  1  0  0  0  0
 10 11  2  0  0  0  0
 10 12  1  0  0  0  0
 12 13  2  0  0  0  0
 13 14  1  0  0  0  0
 13 38  1  0  0  0  0
 14 15  1  0  0  0  0
 15 16  1  0  0  0  0
 15 36  1  0  0  0  0
 15 37  1  0  0  0  0
 16 17  1  0  0  0  0
 16 21  2  0  0  0  0
 17 18  2  0  0  0  0
 17 35  1  0  0  0  0
 18 19  1  0  0  0  0
 18 34  1  0  0  0  0
 19 20  2  0  0  0  0
 19 24  1  0  0  0  0
 20 21  1  0  0  0  0
 20 23  1  0  0  0  0
 21 22  1  0  0  0  0
 24 25  1  0  0  0  0
 24 29  1  0  0  0  0
 24 33  1  0  0  0  0
 25 26  1  0  0  0  0
 25 27  1  0  0  0  0
 25 28  1  0  0  0  0
 29 30  1  0  0  0  0
 29 31  1  0  0  0  0
 29 32  1  0  0  0  0
 43 44  1  0  0  0  0
 43 45  1  0  0  0  0
 43 46  1  0  0  0  0
M  END
> <Gold.Goldscore.Fitness>
67.7756

> <Gold.Goldscore.External.HBond>
1.4847

> <Gold.Protein.ActiveResidues>
 GLU87   ILE88   VAL90   ASN91   ALA92   ASP94   ASN95   ARG98   ILE118  ASN120 
 LYS123  GLY124  ILE125  ILE141  PHE142  THR147  SER148  SER149  ASN150  TYR151 
 GLY160  GLY161  ARG162  ASN163  GLY164  TYR165  GLY166  ALA167  LYS168  LEU169 
 THR181  THR215  ILE217  ILE317  GLN376  LYS378  ILE33   TYR34   MG903  

> <Gold.Goldscore.Internal.HBond>
0.0

> <Gold.Goldscore.Internal.Torsion.Weighted>
-4.6232

> <Gold.Protein.RotatedTorsions>
[ 8833 2752 2751 2750 ] final  -92.65 input   60.00 | X-H torsion
[ 6906  969  968  965 ] final -179.89 input   59.99 | X-H torsion
[ 6910  975  974  971 ] final  -12.12 input   60.00 | X-H torsion
[ 6897  962  961  958 ] final   71.11 input   60.00 | X-H torsion
[ 9084 2997 2996 2994 ] final  -38.60 input   60.00 | X-H torsion
[ 7406 1497 1496 1493 ] final  170.76 input   60.00 | X-H torsion
[ 7140 1220 1219 1216 ] final  115.27 input   60.00 | X-H torsion
[ 6926  995  994  992 ] final   25.13 input   60.0

> <Gold.Goldscore.Constraint.Score>
0.0

> <Gold.Id.Protein>
1ZXM|1ZXM_protein|mol2

> <Gold.Protein.RotatedAtoms>
   40.6750    3.3830   41.8637 H   0  0  0  0  0  0  0  0  0  0  0  0  # atno 6897 bound_to 962 
   42.5663   -2.5035   38.2571 H   0  0  0  0  0  0  0  0  0  0  0  0  # atno 6906 bound_to 969 
   38.8111   -4.3840   40.0676 H   0  0  0  0  0  0  0  0  0  0  0  0  # atno 6910 bound_to 975 
   45.8911    1.1244   38.6740 H   0  0  0  0  0  0  0  0  0  0  0  0  # atno 6926 bound_to 995 
   28.0475    0.1168   43.0607 H   0  0  0  0  0  0  0  0  0  0  0  0  # atno 7140 bound_to 1220
   28.2838   -0.9017   41.0

> <Gold.Version>
5.3.0

> <Gold.Goldscore.Internal.Correction>
-0.0166

> <Gold.Goldscore.Internal.Vdw>
-1.3472

> <Gold.Goldscore.Internal.Vdw.Weighted>
-1.3472

> <Gold.Goldscore.External.HBond.Weighted>
1.4847

> <Gold.Goldscore.External.Vdw.Weighted>
72.2447

> <Gold.Goldscore.Internal.HBond.Weighted>
0.0

> <Gold.Goldscore.Hbonds>
donor molecule, donor type, donor heavy atom, donor atom, acceptor molecule, acceptor atom, score
      L1  H     1    27       P1   757  0.74

> <Gold.Goldscore.External.Vdw>
52.5416

> <Gold.Goldscore.Internal.Torsion>
-4.6232

> <Gold.Goldscore.Internal.Correction.Weighted>
-0.0166

> <Gold.Version>
5.3.0

> <Gold.Id.Protein>
1ZXM_2|1ZXM_2_protein|mol2

> <Gold.PLP.Fitness>
67.7702

> <Gold.PLP.PLP>
-69.7171

> <Gold.PLP.part.hbond>
0.0000

> <Gold.PLP.part.metal>
0.0000

> <Gold.PLP.part.buried>
-8.1856

> <Gold.PLP.part.nonpolar>
-61.4584

> <Gold.PLP.part.repulsive>
0.1771

> <Gold.PLP.ligand.clash>
0.0000

> <Gold.PLP.ligand.torsion>
1.0483

> <Gold.PLP.Chemscore.Hbond>
0.0000

> <Gold.PLP.Chemscore.CHOScore>
0.0000

> <Gold.PLP.Chemscore.Metal>
0.0000

> <Gold.PLP.Chemscore.Internal.Correction>
0.1498

> <Gold.Protein.RotatedTorsions>
[ 10122 3921 3920 3917 ] final   66.88 input   60.00 | X-H torsion
[ 10128 3927 3926 3923 ] final  147.36 input   60.00 | X-H torsion
[ 10117 3914 3913 3910 ] final  -53.21 input   60.00 | X-H torsion
[ 6043   53   52   50 ] final   45.75 input   60.00 | X-H torsion
[ 10611 4448 4447 4444 ] final    9.41 input   60.00 | X-H torsion
[ 10364 4172 4171 4168 ] final   -9.94 input   60.00 | X-H torsion
[ 10142 3947 3946 3944 ] final -135.25 input   60.00 | X-H torsion

> <Gold.Protein.ActiveResidues>
 ILE33   TYR34   GLU87   ILE88   VAL90   ASN91   ALA92   ASP94   ASN95   ARG98  
 ILE118  ASN120  LYS123  GLY124  ILE125  ILE141  PHE142  THR147  SER148  SER149 
 ASN150  TYR151  GLY160  GLY161  ARG162  ASN163  GLY164  TYR165  GLY166  ALA167 
 LYS168  LEU169  THR181  THR215  ILE217  ILE317  GLN376  LYS378  MG904  

> <Gold.Protein.RotatedAtoms>
   67.4451   22.1087   30.6207 H   0  0  0  0  0  0  0  0  0  0  0  0  # atno 6043 bound_to 53  
   60.8671   14.1224   36.3823 H   0  0  0  0  0  0  0  0  0  0  0  0  # atno 10117 bound_to 3914
   60.4826   17.5582   29.6298 H   0  0  0  0  0  0  0  0  0  0  0  0  # atno 10122 bound_to 3921
   64.0988   21.2004   28.4550 H   0  0  0  0  0  0  0  0  0  0  0  0  # atno 10128 bound_to 3927
   55.9570   15.7000   34.2717 H   0  0  0  0  0  0  0  0  0  0  0  0  # atno 10142 bound_to 3947
   75.7256   18.3343   31.8804 H   0  0  0  0  0  0  0  0  0  0  0  0  # atno 10364 bound_to 4172
   75.1874   17.2888   29.9583 H   0  0  0  0  0  0  0  0  0  0  0  0  # atno 10611 bound_to 4448
   59.7416   18.9579   30.0035 LP  0  0  0  0  0  0  0  0  0  0  0  0  # atno 12016 bound_to 3921
   58.8676   17.6837   29.4752 LP  0  0  0  0  0  0  0  0  0  0  0  0  # atno 12017 bound_to 3921
   62.6388   20.4819   28.4720 LP  0  0  0  0  0  0  0  0  0  0  0  0  # atno 12018 bound_to 3927
   63.8622   19.8728   29.3658 LP  0  0  0  0  0  0  0  0  0  0  0  0  # atno 12019 bound_to 3927
   62.3184   14.6188   36.9258 LP  0  0  0  0  0  0  0  0  0  0  0  0  # atno 12024 bound_to 3914
   61.9641   14.7108   35.3343 LP  0  0  0  0  0  0  0  0  0  0  0  0  # atno 12025 bound_to 3914
   68.6064   21.8309   31.7262 LP  0  0  0  0  0  0  0  0  0  0  0  0  # atno 12032 bound_to 53  
   68.1616   23.3617   31.3721 LP  0  0  0  0  0  0  0  0  0  0  0  0  # atno 12033 bound_to 53  
   73.7687   16.7869   30.5775 LP  0  0  0  0  0  0  0  0  0  0  0  0  # atno 12042 bound_to 4448
   73.8460   17.3258   29.0379 LP  0  0  0  0  0  0  0  0  0  0  0  0  # atno 12043 bound_to 4448
   74.3192   18.7720   32.5723 LP  0  0  0  0  0  0  0  0  0  0  0  0  # atno 12050 bound_to 4172
   74.3490   17.5725   31.4646 LP  0  0  0  0  0  0  0  0  0  0  0  0  # atno 12051 bound_to 4172

$$$$
****|SGG-4|sdf|1|dock6
  -GOLD-   9 72315253D 1   1.00000     0.00000

 46 48  0  0  0  0  0  0  0  0  1 V2000
   65.2011   22.3450   23.8950 S   0  0  0  0  0  0  0  0  0  0  0  0
   63.8872   23.4295   23.6735 C   0  0  0  0  0  0  0  0  0  0  0  0
   62.8958   23.3003   24.5281 N   0  0  0  0  0  0  0  0  0  0  0  0
   63.1808   22.2841   25.4180 C   0  0  0  0  0  0  0  0  0  0  0  0
   64.3923   21.6441   25.2375 C   0  0  0  0  0  0  0  0  0  0  0  0
   64.9912   20.4982   25.9873 C   0  0  0  0  0  0  0  0  0  0  0  0
   64.6288   18.9136   25.1640 S   0  0  0  0  0  0  0  0  0  0  0  0
   64.7704   17.8431   26.5512 C   0  0  0  0  0  0  0  0  0  0  0  0
   63.9358   16.7390   26.6361 N   0  0  0  0  0  0  0  0  0  0  0  0
   64.0221   15.8868   27.7300 C   0  0  0  0  0  0  0  0  0  0  0  0
   63.1934   14.7660   27.8184 O   0  0  0  0  0  0  0  0  0  0  0  0
   64.8989   16.1529   28.7032 N   0  0  0  0  0  0  0  0  0  0  0  0
   65.6629   17.2415   28.5527 C   0  0  0  0  0  0  0  0  0  0  0  0
   66.7740   17.6168   29.8822 S   0  0  0  0  0  0  0  0  0  0  0  0
   68.2691   17.7567   28.8694 C   0  0  0  0  0  0  0  0  0  0  0  0
   68.9521   16.4277   28.6693 C   0  0  0  0  0  0  0  0  0  0  0  0
   70.2265   16.3536   28.0949 C   0  0  0  0  0  0  0  0  0  0  0  0
   70.8671   15.1201   27.9399 C   0  0  0  0  0  0  0  0  0  0  0  0
   70.2420   13.9308   28.3400 C   0  0  0  0  0  0  0  0  0  0  0  0
   68.9606   14.0086   28.9042 C   0  0  0  0  0  0  0  0  0  0  0  0
   68.3219   15.2407   29.0645 C   0  0  0  0  0  0  0  0  0  0  0  0
   67.3269   15.2683   29.5044 H   0  0  0  0  0  0  0  0  0  0  0  0
   68.4475   13.1063   29.2302 H   0  0  0  0  0  0  0  0  0  0  0  0
   70.9214   12.5779   28.2170 C   0  0  0  0  0  0  0  0  0  0  0  0
   71.4987   12.3957   26.8116 C   0  0  0  0  0  0  0  0  0  0  0  0
   70.7130   12.3941   26.0481 H   0  0  0  0  0  0  0  0  0  0  0  0
   72.1984   13.2030   26.5674 H   0  0  0  0  0  0  0  0  0  0  0  0
   72.0432   11.4484   26.7369 H   0  0  0  0  0  0  0  0  0  0  0  0
   70.0046   11.4074   28.5825 C   0  0  0  0  0  0  0  0  0  0  0  0
   69.2270   11.2408   27.8294 H   0  0  0  0  0  0  0  0  0  0  0  0
   69.5115   11.5808   29.5452 H   0  0  0  0  0  0  0  0  0  0  0  0
   70.5835   10.4809   28.6641 H   0  0  0  0  0  0  0  0  0  0  0  0
   71.7595   12.5487   28.9264 H   0  0  0  0  0  0  0  0  0  0  0  0
   71.8652   15.1038   27.5090 H   0  0  0  0  0  0  0  0  0  0  0  0
   70.7365   17.2578   27.7698 H   0  0  0  0  0  0  0  0  0  0  0  0
   68.9797   18.4485   29.3381 H   0  0  0  0  0  0  0  0  0  0  0  0
   68.0042   18.1913   27.8981 H   0  0  0  0  0  0  0  0  0  0  0  0
   65.6436   18.0992   27.5254 N   0  0  0  0  0  0  0  0  0  0  0  0
   63.2690   16.5620   25.8980 H   0  0  0  0  0  0  0  0  0  0  0  0
   66.0779   20.6355   26.0352 H   0  0  0  0  0  0  0  0  0  0  0  0
   64.6113   20.4618   27.0141 H   0  0  0  0  0  0  0  0  0  0  0  0
   62.4579   22.0486   26.1904 H   0  0  0  0  0  0  0  0  0  0  0  0
   63.9132   24.4172   22.5611 C   0  0  0  0  0  0  0  0  0  0  0  0
   64.8149   25.0353   22.6213 H   0  0  0  0  0  0  0  0  0  0  0  0
   63.0429   25.0784   22.6213 H   0  0  0  0  0  0  0  0  0  0  0  0
   63.9107   23.9217   21.5851 H   0  0  0  0  0  0  0  0  0  0  0  0
  1  2  1  0  0  0  0
  1  5  1  0  0  0  0
  2  3  2  0  0  0  0
  2 43  1  0  0  0  0
  3  4  1  0  0  0  0
  4  5  2  0  0  0  0
  4 42  1  0  0  0  0
  5  6  1  0  0  0  0
  6  7  1  0  0  0  0
  6 40  1  0  0  0  0
  6 41  1  0  0  0  0
  7  8  1  0  0  0  0
  8  9  1  0  0  0  0
  8 38  2  0  0  0  0
  9 10  1  0  0  0  0
  9 39  1  0  0  0  0
 10 11  2  0  0  0  0
 10 12  1  0  0  0  0
 12 13  2  0  0  0  0
 13 14  1  0  0  0  0
 13 38  1  0  0  0  0
 14 15  1  0  0  0  0
 15 16  1  0  0  0  0
 15 36  1  0  0  0  0
 15 37  1  0  0  0  0
 16 17  1  0  0  0  0
 16 21  2  0  0  0  0
 17 18  2  0  0  0  0
 17 35  1  0  0  0  0
 18 19  1  0  0  0  0
 18 34  1  0  0  0  0
 19 20  2  0  0  0  0
 19 24  1  0  0  0  0
 20 21  1  0  0  0  0
 20 23  1  0  0  0  0
 21 22  1  0  0  0  0
 24 25  1  0  0  0  0
 24 29  1  0  0  0  0
 24 33  1  0  0  0  0
 25 26  1  0  0  0  0
 25 27  1  0  0  0  0
 25 28  1  0  0  0  0
 29 30  1  0  0  0  0
 29 31  1  0  0  0  0
 29 32  1  0  0  0  0
 43 44  1  0  0  0  0
 43 45  1  0  0  0  0
 43 46  1  0  0  0  0
M  END
> <Gold.Goldscore.Fitness>
67.7756

> <Gold.Goldscore.External.HBond>
1.4847

> <Gold.Protein.ActiveResidues>
 GLU87   ILE88   VAL90   ASN91   ALA92   ASP94   ASN95   ARG98   ILE118  ASN120 
 LYS123  GLY124  ILE125  ILE141  PHE142  THR147  SER148  SER149  ASN150  TYR151 
 GLY160  GLY161  ARG162  ASN163  GLY164  TYR165  GLY166  ALA167  LYS168  LEU169 
 THR181  THR215  ILE217  ILE317  GLN376  LYS378  ILE33   TYR34   MG903  

> <Gold.Goldscore.Internal.HBond>
0.0

> <Gold.Goldscore.Internal.Torsion.Weighted>
-4.6232

> <Gold.Protein.RotatedTorsions>
[ 8833 2752 2751 2750 ] final  -92.65 input   60.00 | X-H torsion
[ 6906  969  968  965 ] final -179.89 input   59.99 | X-H torsion
[ 6910  975  974  971 ] final  -12.12 input   60.00 | X-H torsion
[ 6897  962  961  958 ] final   71.11 input   60.00 | X-H torsion
[ 9084 2997 2996 2994 ] final  -38.60 input   60.00 | X-H torsion
[ 7406 1497 1496 1493 ] final  170.76 input   60.00 | X-H torsion
[ 7140 1220 1219 1216 ] final  115.27 input   60.00 | X-H torsion
[ 6926  995  994  992 ] final   25.13 input   60.0

> <Gold.Goldscore.Constraint.Score>
0.0

> <Gold.Id.Protein>
1ZXM|1ZXM_protein|mol2

> <Gold.Protein.RotatedAtoms>
   40.6750    3.3830   41.8637 H   0  0  0  0  0  0  0  0  0  0  0  0  # atno 6897 bound_to 962 
   42.5663   -2.5035   38.2571 H   0  0  0  0  0  0  0  0  0  0  0  0  # atno 6906 bound_to 969 
   38.8111   -4.3840   40.0676 H   0  0  0  0  0  0  0  0  0  0  0  0  # atno 6910 bound_to 975 
   45.8911    1.1244   38.6740 H   0  0  0  0  0  0  0  0  0  0  0  0  # atno 6926 bound_to 995 
   28.0475    0.1168   43.0607 H   0  0  0  0  0  0  0  0  0  0  0  0  # atno 7140 bound_to 1220
   28.2838   -0.9017   41.0

> <Gold.Version>
5.3.0

> <Gold.Goldscore.Internal.Correction>
-0.0166

> <Gold.Goldscore.Internal.Vdw>
-1.3472

> <Gold.Goldscore.Internal.Vdw.Weighted>
-1.3472

> <Gold.Goldscore.External.HBond.Weighted>
1.4847

> <Gold.Goldscore.External.Vdw.Weighted>
72.2447

> <Gold.Goldscore.Internal.HBond.Weighted>
0.0

> <Gold.Goldscore.Hbonds>
donor molecule, donor type, donor heavy atom, donor atom, acceptor molecule, acceptor atom, score
      L1  H     1    27       P1   757  0.74

> <Gold.Goldscore.External.Vdw>
52.5416

> <Gold.Goldscore.Internal.Torsion>
-4.6232

> <Gold.Goldscore.Internal.Correction.Weighted>
-0.0166

> <Gold.Version>
5.3.0

> <Gold.Id.Protein>
1ZXM_2|1ZXM_2_protein|mol2

> <Gold.PLP.Fitness>
64.5996

> <Gold.PLP.PLP>
-59.3663

> <Gold.PLP.part.hbond>
0.0000

> <Gold.PLP.part.metal>
-0.9963

> <Gold.PLP.part.buried>
-6.7451

> <Gold.PLP.part.nonpolar>
-54.1125

> <Gold.PLP.part.repulsive>
0.8647

> <Gold.PLP.ligand.clash>
0.0000

> <Gold.PLP.ligand.torsion>
1.2913

> <Gold.PLP.Chemscore.Hbond>
0.0000

> <Gold.PLP.Chemscore.CHOScore>
0.6755

> <Gold.PLP.Chemscore.Metal>
0.9399

> <Gold.Chemscore.Hbonds>
donor molecule, donor type, donor heavy atom, donor atom, acceptor molecule, acceptor atom, score
      L1  C     4    42       P1  3934  0.68
      P1  M  5931  5931       L1    11  0.94

> <Gold.PLP.Chemscore.Internal.Correction>
0.1498

> <Gold.Protein.RotatedTorsions>
[ 10122 3921 3920 3917 ] final -128.40 input   60.00 | X-H torsion
[ 10128 3927 3926 3923 ] final -156.29 input   60.00 | X-H torsion
[ 10117 3914 3913 3910 ] final  132.89 input   60.00 | X-H torsion
[ 6043   53   52   50 ] final   -6.38 input   60.00 | X-H torsion
[ 10611 4448 4447 4444 ] final -106.03 input   60.00 | X-H torsion
[ 10364 4172 4171 4168 ] final  -69.89 input   60.00 | X-H torsion
[ 10142 3947 3946 3944 ] final  100.93 input   60.00 | X-H torsion

> <Gold.Protein.ActiveResidues>
 ILE33   TYR34   GLU87   ILE88   VAL90   ASN91   ALA92   ASP94   ASN95   ARG98  
 ILE118  ASN120  LYS123  GLY124  ILE125  ILE141  PHE142  THR147  SER148  SER149 
 ASN150  TYR151  GLY160  GLY161  ARG162  ASN163  GLY164  TYR165  GLY166  ALA167 
 LYS168  LEU169  THR181  THR215  ILE217  ILE317  GLN376  LYS378  MG904  

> <Gold.Protein.RotatedAtoms>
   67.8871   21.5412   31.0198 H   0  0  0  0  0  0  0  0  0  0  0  0  # atno 6043 bound_to 53  
   62.5776   14.8390   36.1450 H   0  0  0  0  0  0  0  0  0  0  0  0  # atno 10117 bound_to 3914
   58.8110   18.3613   29.6960 H   0  0  0  0  0  0  0  0  0  0  0  0  # atno 10122 bound_to 3921
   64.4309   20.6067   29.0197 H   0  0  0  0  0  0  0  0  0  0  0  0  # atno 10128 bound_to 3927
   57.1593   15.4226   33.1736 H   0  0  0  0  0  0  0  0  0  0  0  0  # atno 10142 bound_to 3947
   75.2488   18.8753   32.4766 H   0  0  0  0  0  0  0  0  0  0  0  0  # atno 10364 bound_to 4172
   73.8357   16.7867   30.6115 H   0  0  0  0  0  0  0  0  0  0  0  0  # atno 10611 bound_to 4448
   59.9049   17.1854   29.4340 LP  0  0  0  0  0  0  0  0  0  0  0  0  # atno 12016 bound_to 3921
   60.3879   18.6474   29.9779 LP  0  0  0  0  0  0  0  0  0  0  0  0  # atno 12017 bound_to 3921
   63.1542   21.1384   28.1621 LP  0  0  0  0  0  0  0  0  0  0  0  0  # atno 12018 bound_to 3927
   63.0123   19.8142   29.1071 LP  0  0  0  0  0  0  0  0  0  0  0  0  # atno 12019 bound_to 3927
   61.1822   14.3832   35.4428 LP  0  0  0  0  0  0  0  0  0  0  0  0  # atno 12024 bound_to 3914
   61.3776   14.2246   37.0563 LP  0  0  0  0  0  0  0  0  0  0  0  0  # atno 12025 bound_to 3914
   68.7272   22.6355   31.8828 LP  0  0  0  0  0  0  0  0  0  0  0  0  # atno 12032 bound_to 53  
   67.5957   23.1288   30.8136 LP  0  0  0  0  0  0  0  0  0  0  0  0  # atno 12033 bound_to 53  
   73.7819   17.3020   29.0688 LP  0  0  0  0  0  0  0  0  0  0  0  0  # atno 12042 bound_to 4448
   75.1941   17.3164   29.8888 LP  0  0  0  0  0  0  0  0  0  0  0  0  # atno 12043 bound_to 4448
   73.8683   18.1180   32.0657 LP  0  0  0  0  0  0  0  0  0  0  0  0  # atno 12050 bound_to 4172
   75.2801   17.6818   31.3708 LP  0  0  0  0  0  0  0  0  0  0  0  0  # atno 12051 bound_to 4172

$$$$
****|SGG-4|sdf|1|dock9
  -GOLD-   9 72315253D 1   1.00000     0.00000

 46 48  0  0  0  0  0  0  0  0  1 V2000
   63.4466   23.9785   23.7081 S   0  0  0  0  0  0  0  0  0  0  0  0
   62.5032   25.2780   24.3185 C   0  0  0  0  0  0  0  0  0  0  0  0
   61.9710   25.0830   25.5053 N   0  0  0  0  0  0  0  0  0  0  0  0
   62.3235   23.8323   25.9713 C   0  0  0  0  0  0  0  0  0  0  0  0
   63.1266   23.0797   25.1355 C   0  0  0  0  0  0  0  0  0  0  0  0
   63.6575   21.6934   25.3101 C   0  0  0  0  0  0  0  0  0  0  0  0
   65.4735   21.6625   25.1648 S   0  0  0  0  0  0  0  0  0  0  0  0
   65.7618   20.0007   25.6603 C   0  0  0  0  0  0  0  0  0  0  0  0
   64.6757   19.1777   25.9164 N   0  0  0  0  0  0  0  0  0  0  0  0
   64.8807   17.8645   26.3215 C   0  0  0  0  0  0  0  0  0  0  0  0
   63.7927   17.0250   26.5707 O   0  0  0  0  0  0  0  0  0  0  0  0
   66.1286   17.4127   26.4800 N   0  0  0  0  0  0  0  0  0  0  0  0
   67.1235   18.2700   26.2215 C   0  0  0  0  0  0  0  0  0  0  0  0
   68.7705   17.6759   26.4996 S   0  0  0  0  0  0  0  0  0  0  0  0
   68.9384   18.3133   28.1867 C   0  0  0  0  0  0  0  0  0  0  0  0
   67.9757   17.6589   29.1448 C   0  0  0  0  0  0  0  0  0  0  0  0
   67.0575   18.4226   29.8751 C   0  0  0  0  0  0  0  0  0  0  0  0
   66.1469   17.8066   30.7395 C   0  0  0  0  0  0  0  0  0  0  0  0
   66.1442   16.4146   30.9067 C   0  0  0  0  0  0  0  0  0  0  0  0
   67.0734   15.6546   30.1819 C   0  0  0  0  0  0  0  0  0  0  0  0
   67.9800   16.2684   29.3141 C   0  0  0  0  0  0  0  0  0  0  0  0
   68.6898   15.6514   28.7667 H   0  0  0  0  0  0  0  0  0  0  0  0
   67.0966   14.5715   30.2835 H   0  0  0  0  0  0  0  0  0  0  0  0
   65.1483   15.7098   31.8113 C   0  0  0  0  0  0  0  0  0  0  0  0
   65.2459   14.1930   31.6344 C   0  0  0  0  0  0  0  0  0  0  0  0
   64.9788   13.8859   30.6172 H   0  0  0  0  0  0  0  0  0  0  0  0
   66.2644   13.8400   31.8320 H   0  0  0  0  0  0  0  0  0  0  0  0
   64.5738   13.6784   32.3292 H   0  0  0  0  0  0  0  0  0  0  0  0
   63.7077   16.1876   31.6096 C   0  0  0  0  0  0  0  0  0  0  0  0
   63.2903   15.8503   30.6549 H   0  0  0  0  0  0  0  0  0  0  0  0
   63.6493   17.2811   31.6368 H   0  0  0  0  0  0  0  0  0  0  0  0
   63.0620   15.7973   32.4040 H   0  0  0  0  0  0  0  0  0  0  0  0
   65.4083   15.9398   32.8534 H   0  0  0  0  0  0  0  0  0  0  0  0
   65.4349   18.4303   31.2742 H   0  0  0  0  0  0  0  0  0  0  0  0
   67.0373   19.5053   29.7713 H   0  0  0  0  0  0  0  0  0  0  0  0
   68.7644   19.3962   28.2007 H   0  0  0  0  0  0  0  0  0  0  0  0
   69.9690   18.1579   28.5273 H   0  0  0  0  0  0  0  0  0  0  0  0
   67.0029   19.5406   25.8187 N   0  0  0  0  0  0  0  0  0  0  0  0
   63.7395   19.5410   25.8055 H   0  0  0  0  0  0  0  0  0  0  0  0
   63.3725   21.3275   26.3036 H   0  0  0  0  0  0  0  0  0  0  0  0
   63.2284   21.0140   24.5657 H   0  0  0  0  0  0  0  0  0  0  0  0
   61.9609   23.5156   26.9423 H   0  0  0  0  0  0  0  0  0  0  0  0
   62.3185   26.5122   23.5083 C   0  0  0  0  0  0  0  0  0  0  0  0
   63.2897   26.9386   23.2367 H   0  0  0  0  0  0  0  0  0  0  0  0
   61.7658   27.2627   24.0821 H   0  0  0  0  0  0  0  0  0  0  0  0
   61.7721   26.3057   22.5825 H   0  0  0  0  0  0  0  0  0  0  0  0
  1  2  1  0  0  0  0
  1  5  1  0  0  0  0
  2  3  2  0  0  0  0
  2 43  1  0  0  0  0
  3  4  1  0  0  0  0
  4  5  2  0  0  0  0
  4 42  1  0  0  0  0
  5  6  1  0  0  0  0
  6  7  1  0  0  0  0
  6 40  1  0  0  0  0
  6 41  1  0  0  0  0
  7  8  1  0  0  0  0
  8  9  1  0  0  0  0
  8 38  2  0  0  0  0
  9 10  1  0  0  0  0
  9 39  1  0  0  0  0
 10 11  2  0  0  0  0
 10 12  1  0  0  0  0
 12 13  2  0  0  0  0
 13 14  1  0  0  0  0
 13 38  1  0  0  0  0
 14 15  1  0  0  0  0
 15 16  1  0  0  0  0
 15 36  1  0  0  0  0
 15 37  1  0  0  0  0
 16 17  1  0  0  0  0
 16 21  2  0  0  0  0
 17 18  2  0  0  0  0
 17 35  1  0  0  0  0
 18 19  1  0  0  0  0
 18 34  1  0  0  0  0
 19 20  2  0  0  0  0
 19 24  1  0  0  0  0
 20 21  1  0  0  0  0
 20 23  1  0  0  0  0
 21 22  1  0  0  0  0
 24 25  1  0  0  0  0
 24 29  1  0  0  0  0
 24 33  1  0  0  0  0
 25 26  1  0  0  0  0
 25 27  1  0  0  0  0
 25 28  1  0  0  0  0
 29 30  1  0  0  0  0
 29 31  1  0  0  0  0
 29 32  1  0  0  0  0
 43 44  1  0  0  0  0
 43 45  1  0  0  0  0
 43 46  1  0  0  0  0
M  END
> <Gold.Goldscore.Fitness>
67.7756

> <Gold.Goldscore.External.HBond>
1.4847

> <Gold.Protein.ActiveResidues>
 GLU87   ILE88   VAL90   ASN91   ALA92   ASP94   ASN95   ARG98   ILE118  ASN120 
 LYS123  GLY124  ILE125  ILE141  PHE142  THR147  SER148  SER149  ASN150  TYR151 
 GLY160  GLY161  ARG162  ASN163  GLY164  TYR165  GLY166  ALA167  LYS168  LEU169 
 THR181  THR215  ILE217  ILE317  GLN376  LYS378  ILE33   TYR34   MG903  

> <Gold.Goldscore.Internal.HBond>
0.0

> <Gold.Goldscore.Internal.Torsion.Weighted>
-4.6232

> <Gold.Protein.RotatedTorsions>
[ 8833 2752 2751 2750 ] final  -92.65 input   60.00 | X-H torsion
[ 6906  969  968  965 ] final -179.89 input   59.99 | X-H torsion
[ 6910  975  974  971 ] final  -12.12 input   60.00 | X-H torsion
[ 6897  962  961  958 ] final   71.11 input   60.00 | X-H torsion
[ 9084 2997 2996 2994 ] final  -38.60 input   60.00 | X-H torsion
[ 7406 1497 1496 1493 ] final  170.76 input   60.00 | X-H torsion
[ 7140 1220 1219 1216 ] final  115.27 input   60.00 | X-H torsion
[ 6926  995  994  992 ] final   25.13 input   60.0

> <Gold.Goldscore.Constraint.Score>
0.0

> <Gold.Id.Protein>
1ZXM|1ZXM_protein|mol2

> <Gold.Protein.RotatedAtoms>
   40.6750    3.3830   41.8637 H   0  0  0  0  0  0  0  0  0  0  0  0  # atno 6897 bound_to 962 
   42.5663   -2.5035   38.2571 H   0  0  0  0  0  0  0  0  0  0  0  0  # atno 6906 bound_to 969 
   38.8111   -4.3840   40.0676 H   0  0  0  0  0  0  0  0  0  0  0  0  # atno 6910 bound_to 975 
   45.8911    1.1244   38.6740 H   0  0  0  0  0  0  0  0  0  0  0  0  # atno 6926 bound_to 995 
   28.0475    0.1168   43.0607 H   0  0  0  0  0  0  0  0  0  0  0  0  # atno 7140 bound_to 1220
   28.2838   -0.9017   41.0

> <Gold.Version>
5.3.0

> <Gold.Goldscore.Internal.Correction>
-0.0166

> <Gold.Goldscore.Internal.Vdw>
-1.3472

> <Gold.Goldscore.Internal.Vdw.Weighted>
-1.3472

> <Gold.Goldscore.External.HBond.Weighted>
1.4847

> <Gold.Goldscore.External.Vdw.Weighted>
72.2447

> <Gold.Goldscore.Internal.HBond.Weighted>
0.0

> <Gold.Goldscore.Hbonds>
donor molecule, donor type, donor heavy atom, donor atom, acceptor molecule, acceptor atom, score
      L1  H     1    27       P1   757  0.74

> <Gold.Goldscore.External.Vdw>
52.5416

> <Gold.Goldscore.Internal.Torsion>
-4.6232

> <Gold.Goldscore.Internal.Correction.Weighted>
-0.0166

> <Gold.Version>
5.3.0

> <Gold.Id.Protein>
1ZXM_2|1ZXM_2_protein|mol2

> <Gold.PLP.Fitness>
63.5089

> <Gold.PLP.PLP>
-59.8538

> <Gold.PLP.part.hbond>
-1.0000

> <Gold.PLP.part.metal>
0.0000

> <Gold.PLP.part.buried>
-6.0412

> <Gold.PLP.part.nonpolar>
-52.4698

> <Gold.PLP.part.repulsive>
0.5709

> <Gold.PLP.ligand.clash>
0.0000

> <Gold.PLP.ligand.torsion>
0.6113

> <Gold.PLP.Chemscore.Hbond>
0.5760

> <Gold.PLP.Chemscore.CHOScore>
1.0000

> <Gold.PLP.Chemscore.Metal>
0.0000

> <Gold.Chemscore.Hbonds>
donor molecule, donor type, donor heavy atom, donor atom, acceptor molecule, acceptor atom, score
      P1  H  3935 10132       L1    11  0.58
      L1  C     4    42       P1  3925  1.00

> <Gold.PLP.Chemscore.Internal.Correction>
0.1498

> <Gold.Protein.RotatedTorsions>
[ 10122 3921 3920 3917 ] final  -99.13 input   60.00 | X-H torsion
[ 10128 3927 3926 3923 ] final -167.79 input   60.00 | X-H torsion
[ 10117 3914 3913 3910 ] final   49.33 input   60.00 | X-H torsion
[ 6043   53   52   50 ] final   -3.83 input   60.00 | X-H torsion
[ 10611 4448 4447 4444 ] final  -69.83 input   60.00 | X-H torsion
[ 10364 4172 4171 4168 ] final -168.35 input   60.00 | X-H torsion
[ 10142 3947 3946 3944 ] final  -55.80 input   60.00 | X-H torsion

> <Gold.Protein.ActiveResidues>
 ILE33   TYR34   GLU87   ILE88   VAL90   ASN91   ALA92   ASP94   ASN95   ARG98  
 ILE118  ASN120  LYS123  GLY124  ILE125  ILE141  PHE142  THR147  SER148  SER149 
 ASN150  TYR151  GLY160  GLY161  ARG162  ASN163  GLY164  TYR165  GLY166  ALA167 
 LYS168  LEU169  THR181  THR215  ILE217  ILE317  GLN376  LYS378  MG904  

> <Gold.Protein.RotatedAtoms>
   67.8585   21.5546   30.9928 H   0  0  0  0  0  0  0  0  0  0  0  0  # atno 6043 bound_to 53  
   61.6995   14.6146   35.2878 H   0  0  0  0  0  0  0  0  0  0  0  0  # atno 10117 bound_to 3914
   59.0597   18.7333   29.8495 H   0  0  0  0  0  0  0  0  0  0  0  0  # atno 10122 bound_to 3921
   64.4291   20.7563   28.9066 H   0  0  0  0  0  0  0  0  0  0  0  0  # atno 10128 bound_to 3927
   55.3361   15.3020   33.3294 H   0  0  0  0  0  0  0  0  0  0  0  0  # atno 10142 bound_to 3947
   73.9337   18.3773   32.2934 H   0  0  0  0  0  0  0  0  0  0  0  0  # atno 10364 bound_to 4172
   74.3977   16.8584   30.7436 H   0  0  0  0  0  0  0  0  0  0  0  0  # atno 10611 bound_to 4448
   59.4318   17.2178   29.3880 LP  0  0  0  0  0  0  0  0  0  0  0  0  # atno 12016 bound_to 3921
   60.6104   18.2404   29.8693 LP  0  0  0  0  0  0  0  0  0  0  0  0  # atno 12017 bound_to 3921
   62.9978   21.0349   28.1842 LP  0  0  0  0  0  0  0  0  0  0  0  0  # atno 12018 bound_to 3927
   63.1705   19.7671   29.1988 LP  0  0  0  0  0  0  0  0  0  0  0  0  # atno 12019 bound_to 3927
   60.9626   14.1186   36.6512 LP  0  0  0  0  0  0  0  0  0  0  0  0  # atno 12024 bound_to 3914
   62.4815   14.7152   36.7113 LP  0  0  0  0  0  0  0  0  0  0  0  0  # atno 12025 bound_to 3914
   68.7340   22.5945   31.8873 LP  0  0  0  0  0  0  0  0  0  0  0  0  # atno 12032 bound_to 53  
   67.6177   23.1563   30.8362 LP  0  0  0  0  0  0  0  0  0  0  0  0  # atno 12033 bound_to 53  
   73.4116   17.0890   29.4698 LP  0  0  0  0  0  0  0  0  0  0  0  0  # atno 12042 bound_to 4448
   74.9984   17.4571   29.3548 LP  0  0  0  0  0  0  0  0  0  0  0  0  # atno 12043 bound_to 4448
   74.9534   17.5581   31.3253 LP  0  0  0  0  0  0  0  0  0  0  0  0  # atno 12050 bound_to 4172
   75.5193   18.7432   32.2957 LP  0  0  0  0  0  0  0  0  0  0  0  0  # atno 12051 bound_to 4172

$$$$
****|SGG-4|sdf|1|dock5
  -GOLD-   9 72315253D 1   1.00000     0.00000

 46 48  0  0  0  0  0  0  0  0  1 V2000
   65.1943   22.0116   23.7211 S   0  0  0  0  0  0  0  0  0  0  0  0
   63.9357   23.1312   23.3836 C   0  0  0  0  0  0  0  0  0  0  0  0
   63.1220   23.3873   24.3847 N   0  0  0  0  0  0  0  0  0  0  0  0
   63.5069   22.6593   25.4926 C   0  0  0  0  0  0  0  0  0  0  0  0
   64.6165   21.8516   25.3299 C   0  0  0  0  0  0  0  0  0  0  0  0
   65.2733   20.9203   26.2970 C   0  0  0  0  0  0  0  0  0  0  0  0
   66.1113   19.5553   25.4282 S   0  0  0  0  0  0  0  0  0  0  0  0
   67.2363   19.0742   26.6904 C   0  0  0  0  0  0  0  0  0  0  0  0
   67.2484   19.7791   27.8844 N   0  0  0  0  0  0  0  0  0  0  0  0
   68.1381   19.4238   28.8907 C   0  0  0  0  0  0  0  0  0  0  0  0
   68.1495   20.1209   30.1010 O   0  0  0  0  0  0  0  0  0  0  0  0
   68.9906   18.4145   28.6883 N   0  0  0  0  0  0  0  0  0  0  0  0
   68.9234   17.7891   27.5069 C   0  0  0  0  0  0  0  0  0  0  0  0
   70.1042   16.4962   27.2291 S   0  0  0  0  0  0  0  0  0  0  0  0
   69.8094   15.6097   28.7809 C   0  0  0  0  0  0  0  0  0  0  0  0
   68.3868   15.7501   29.2596 C   0  0  0  0  0  0  0  0  0  0  0  0
   67.3123   15.4025   28.4324 C   0  0  0  0  0  0  0  0  0  0  0  0
   65.9960   15.5065   28.8933 C   0  0  0  0  0  0  0  0  0  0  0  0
   65.7225   15.9763   30.1856 C   0  0  0  0  0  0  0  0  0  0  0  0
   66.8013   16.3344   31.0066 C   0  0  0  0  0  0  0  0  0  0  0  0
   68.1169   16.2258   30.5492 C   0  0  0  0  0  0  0  0  0  0  0  0
   68.9327   16.5130   31.2097 H   0  0  0  0  0  0  0  0  0  0  0  0
   66.6264   16.6985   32.0169 H   0  0  0  0  0  0  0  0  0  0  0  0
   64.3078   16.0708   30.7301 C   0  0  0  0  0  0  0  0  0  0  0  0
   63.9890   17.5094   31.1431 C   0  0  0  0  0  0  0  0  0  0  0  0
   64.6355   17.8489   31.9599 H   0  0  0  0  0  0  0  0  0  0  0  0
   64.1260   18.1983   30.3019 H   0  0  0  0  0  0  0  0  0  0  0  0
   62.9498   17.5945   31.4781 H   0  0  0  0  0  0  0  0  0  0  0  0
   64.0409   15.1031   31.8861 C   0  0  0  0  0  0  0  0  0  0  0  0
   64.5620   15.4002   32.8025 H   0  0  0  0  0  0  0  0  0  0  0  0
   64.3605   14.0872   31.6295 H   0  0  0  0  0  0  0  0  0  0  0  0
   62.9702   15.0699   32.1159 H   0  0  0  0  0  0  0  0  0  0  0  0
   63.6114   15.7941   29.9269 H   0  0  0  0  0  0  0  0  0  0  0  0
   65.1882   15.2076   28.2299 H   0  0  0  0  0  0  0  0  0  0  0  0
   67.4909   15.0390   27.4227 H   0  0  0  0  0  0  0  0  0  0  0  0
   70.4807   15.9841   29.5635 H   0  0  0  0  0  0  0  0  0  0  0  0
   70.0540   14.5501   28.6399 H   0  0  0  0  0  0  0  0  0  0  0  0
   68.0886   18.0674   26.4984 N   0  0  0  0  0  0  0  0  0  0  0  0
   66.6066   20.5487   28.0139 H   0  0  0  0  0  0  0  0  0  0  0  0
   66.0136   21.4800   26.8807 H   0  0  0  0  0  0  0  0  0  0  0  0
   64.5406   20.5019   26.9956 H   0  0  0  0  0  0  0  0  0  0  0  0
   62.9333   22.7573   26.4069 H   0  0  0  0  0  0  0  0  0  0  0  0
   63.8102   23.7275   22.0263 C   0  0  0  0  0  0  0  0  0  0  0  0
   64.7448   24.2200   21.7386 H   0  0  0  0  0  0  0  0  0  0  0  0
   63.0129   24.4773   22.0142 H   0  0  0  0  0  0  0  0  0  0  0  0
   63.5869   22.9654   21.2730 H   0  0  0  0  0  0  0  0  0  0  0  0
  1  2  1  0  0  0  0
  1  5  1  0  0  0  0
  2  3  2  0  0  0  0
  2 43  1  0  0  0  0
  3  4  1  0  0  0  0
  4  5  2  0  0  0  0
  4 42  1  0  0  0  0
  5  6  1  0  0  0  0
  6  7  1  0  0  0  0
  6 40  1  0  0  0  0
  6 41  1  0  0  0  0
  7  8  1  0  0  0  0
  8  9  1  0  0  0  0
  8 38  2  0  0  0  0
  9 10  1  0  0  0  0
  9 39  1  0  0  0  0
 10 11  2  0  0  0  0
 10 12  1  0  0  0  0
 12 13  2  0  0  0  0
 13 14  1  0  0  0  0
 13 38  1  0  0  0  0
 14 15  1  0  0  0  0
 15 16  1  0  0  0  0
 15 36  1  0  0  0  0
 15 37  1  0  0  0  0
 16 17  1  0  0  0  0
 16 21  2  0  0  0  0
 17 18  2  0  0  0  0
 17 35  1  0  0  0  0
 18 19  1  0  0  0  0
 18 34  1  0  0  0  0
 19 20  2  0  0  0  0
 19 24  1  0  0  0  0
 20 21  1  0  0  0  0
 20 23  1  0  0  0  0
 21 22  1  0  0  0  0
 24 25  1  0  0  0  0
 24 29  1  0  0  0  0
 24 33  1  0  0  0  0
 25 26  1  0  0  0  0
 25 27  1  0  0  0  0
 25 28  1  0  0  0  0
 29 30  1  0  0  0  0
 29 31  1  0  0  0  0
 29 32  1  0  0  0  0
 43 44  1  0  0  0  0
 43 45  1  0  0  0  0
 43 46  1  0  0  0  0
M  END
> <Gold.Goldscore.Fitness>
67.7756

> <Gold.Goldscore.External.HBond>
1.4847

> <Gold.Protein.ActiveResidues>
 GLU87   ILE88   VAL90   ASN91   ALA92   ASP94   ASN95   ARG98   ILE118  ASN120 
 LYS123  GLY124  ILE125  ILE141  PHE142  THR147  SER148  SER149  ASN150  TYR151 
 GLY160  GLY161  ARG162  ASN163  GLY164  TYR165  GLY166  ALA167  LYS168  LEU169 
 THR181  THR215  ILE217  ILE317  GLN376  LYS378  ILE33   TYR34   MG903  

> <Gold.Goldscore.Internal.HBond>
0.0

> <Gold.Goldscore.Internal.Torsion.Weighted>
-4.6232

> <Gold.Protein.RotatedTorsions>
[ 8833 2752 2751 2750 ] final  -92.65 input   60.00 | X-H torsion
[ 6906  969  968  965 ] final -179.89 input   59.99 | X-H torsion
[ 6910  975  974  971 ] final  -12.12 input   60.00 | X-H torsion
[ 6897  962  961  958 ] final   71.11 input   60.00 | X-H torsion
[ 9084 2997 2996 2994 ] final  -38.60 input   60.00 | X-H torsion
[ 7406 1497 1496 1493 ] final  170.76 input   60.00 | X-H torsion
[ 7140 1220 1219 1216 ] final  115.27 input   60.00 | X-H torsion
[ 6926  995  994  992 ] final   25.13 input   60.0

> <Gold.Goldscore.Constraint.Score>
0.0

> <Gold.Id.Protein>
1ZXM|1ZXM_protein|mol2

> <Gold.Protein.RotatedAtoms>
   40.6750    3.3830   41.8637 H   0  0  0  0  0  0  0  0  0  0  0  0  # atno 6897 bound_to 962 
   42.5663   -2.5035   38.2571 H   0  0  0  0  0  0  0  0  0  0  0  0  # atno 6906 bound_to 969 
   38.8111   -4.3840   40.0676 H   0  0  0  0  0  0  0  0  0  0  0  0  # atno 6910 bound_to 975 
   45.8911    1.1244   38.6740 H   0  0  0  0  0  0  0  0  0  0  0  0  # atno 6926 bound_to 995 
   28.0475    0.1168   43.0607 H   0  0  0  0  0  0  0  0  0  0  0  0  # atno 7140 bound_to 1220
   28.2838   -0.9017   41.0

> <Gold.Version>
5.3.0

> <Gold.Goldscore.Internal.Correction>
-0.0166

> <Gold.Goldscore.Internal.Vdw>
-1.3472

> <Gold.Goldscore.Internal.Vdw.Weighted>
-1.3472

> <Gold.Goldscore.External.HBond.Weighted>
1.4847

> <Gold.Goldscore.External.Vdw.Weighted>
72.2447

> <Gold.Goldscore.Internal.HBond.Weighted>
0.0

> <Gold.Goldscore.Hbonds>
donor molecule, donor type, donor heavy atom, donor atom, acceptor molecule, acceptor atom, score
      L1  H     1    27       P1   757  0.74

> <Gold.Goldscore.External.Vdw>
52.5416

> <Gold.Goldscore.Internal.Torsion>
-4.6232

> <Gold.Goldscore.Internal.Correction.Weighted>
-0.0166

> <Gold.Version>
5.3.0

> <Gold.Id.Protein>
1ZXM_2|1ZXM_2_protein|mol2

> <Gold.PLP.Fitness>
63.0448

> <Gold.PLP.PLP>
-61.8424

> <Gold.PLP.part.hbond>
-1.0000

> <Gold.PLP.part.metal>
0.0000

> <Gold.PLP.part.buried>
-7.8248

> <Gold.PLP.part.nonpolar>
-53.1440

> <Gold.PLP.part.repulsive>
0.3839

> <Gold.PLP.ligand.clash>
0.2994

> <Gold.PLP.ligand.torsion>
0.8240

> <Gold.PLP.Chemscore.Hbond>
1.0000

> <Gold.PLP.Chemscore.CHOScore>
0.0000

> <Gold.PLP.Chemscore.Metal>
0.0000

> <Gold.Chemscore.Hbonds>
donor molecule, donor type, donor heavy atom, donor atom, acceptor molecule, acceptor atom, score
      P1  H    53  6043       L1    11  1.00

> <Gold.PLP.Chemscore.Internal.Correction>
0.1498

> <Gold.Protein.RotatedTorsions>
[ 10122 3921 3920 3917 ] final  161.65 input   60.00 | X-H torsion
[ 10128 3927 3926 3923 ] final -148.89 input   60.00 | X-H torsion
[ 10117 3914 3913 3910 ] final  -61.67 input   60.00 | X-H torsion
[ 6043   53   52   50 ] final   -5.29 input   60.00 | X-H torsion
[ 10611 4448 4447 4444 ] final -112.67 input   60.00 | X-H torsion
[ 10364 4172 4171 4168 ] final   86.33 input   60.00 | X-H torsion
[ 10142 3947 3946 3944 ] final -145.90 input   60.00 | X-H torsion

> <Gold.Protein.ActiveResidues>
 ILE33   TYR34   GLU87   ILE88   VAL90   ASN91   ALA92   ASP94   ASN95   ARG98  
 ILE118  ASN120  LYS123  GLY124  ILE125  ILE141  PHE142  THR147  SER148  SER149 
 ASN150  TYR151  GLY160  GLY161  ARG162  ASN163  GLY164  TYR165  GLY166  ALA167 
 LYS168  LEU169  THR181  THR215  ILE217  ILE317  GLN376  LYS378  MG904  

> <Gold.Protein.RotatedAtoms>
   67.8748   21.5467   31.0082 H   0  0  0  0  0  0  0  0  0  0  0  0  # atno 6043 bound_to 53  
   60.9062   14.1186   36.5148 H   0  0  0  0  0  0  0  0  0  0  0  0  # atno 10117 bound_to 3914
   59.1344   17.3791   29.4085 H   0  0  0  0  0  0  0  0  0  0  0  0  # atno 10122 bound_to 3921
   64.4129   20.5081   29.0874 H   0  0  0  0  0  0  0  0  0  0  0  0  # atno 10128 bound_to 3927
   56.1252   15.7282   34.3048 H   0  0  0  0  0  0  0  0  0  0  0  0  # atno 10142 bound_to 3947
   74.7164   17.5300   31.3522 H   0  0  0  0  0  0  0  0  0  0  0  0  # atno 10364 bound_to 4172
   73.7450   16.7881   30.5520 H   0  0  0  0  0  0  0  0  0  0  0  0  # atno 10611 bound_to 4448
   60.6282   17.9176   29.7642 LP  0  0  0  0  0  0  0  0  0  0  0  0  # atno 12016 bound_to 3921
   59.3387   18.9044   29.9374 LP  0  0  0  0  0  0  0  0  0  0  0  0  # atno 12017 bound_to 3921
   63.2635   21.1922   28.1606 LP  0  0  0  0  0  0  0  0  0  0  0  0  # atno 12018 bound_to 3927
   62.9211   19.8598   29.0404 LP  0  0  0  0  0  0  0  0  0  0  0  0  # atno 12019 bound_to 3927
   62.4055   14.6677   36.8289 LP  0  0  0  0  0  0  0  0  0  0  0  0  # atno 12024 bound_to 3914
   61.8377   14.6657   35.2978 LP  0  0  0  0  0  0  0  0  0  0  0  0  # atno 12025 bound_to 3914
   68.7303   22.6179   31.8849 LP  0  0  0  0  0  0  0  0  0  0  0  0  # atno 12032 bound_to 53  
   67.6050   23.1408   30.8232 LP  0  0  0  0  0  0  0  0  0  0  0  0  # atno 12033 bound_to 53  
   73.8761   17.3362   29.0255 LP  0  0  0  0  0  0  0  0  0  0  0  0  # atno 12042 bound_to 4448
   75.1912   17.2807   29.9920 LP  0  0  0  0  0  0  0  0  0  0  0  0  # atno 12043 bound_to 4448
   75.6460   18.6061   32.1434 LP  0  0  0  0  0  0  0  0  0  0  0  0  # atno 12050 bound_to 4172
   74.0386   18.5483   32.4254 LP  0  0  0  0  0  0  0  0  0  0  0  0  # atno 12051 bound_to 4172

$$$$
****|SGG-4|sdf|1|dock1
  -GOLD-   9 72315253D 1   1.00000     0.00000

 46 48  0  0  0  0  0  0  0  0  1 V2000
   65.6022   20.7831   24.3660 S   0  0  0  0  0  0  0  0  0  0  0  0
   64.8992   22.3477   24.4627 C   0  0  0  0  0  0  0  0  0  0  0  0
   64.5126   22.7217   25.6629 N   0  0  0  0  0  0  0  0  0  0  0  0
   64.7835   21.7177   26.5708 C   0  0  0  0  0  0  0  0  0  0  0  0
   65.3788   20.5815   26.0563 C   0  0  0  0  0  0  0  0  0  0  0  0
   65.7711   19.3121   26.7409 C   0  0  0  0  0  0  0  0  0  0  0  0
   65.0594   17.8632   25.8957 S   0  0  0  0  0  0  0  0  0  0  0  0
   64.3919   17.0295   27.2919 C   0  0  0  0  0  0  0  0  0  0  0  0
   63.4205   16.0598   27.0947 N   0  0  0  0  0  0  0  0  0  0  0  0
   62.8702   15.3974   28.1850 C   0  0  0  0  0  0  0  0  0  0  0  0
   61.8995   14.4113   27.9951 O   0  0  0  0  0  0  0  0  0  0  0  0
   63.2705   15.7178   29.4194 N   0  0  0  0  0  0  0  0  0  0  0  0
   64.2053   16.6696   29.5280 C   0  0  0  0  0  0  0  0  0  0  0  0
   64.6775   17.1289   31.1739 S   0  0  0  0  0  0  0  0  0  0  0  0
   66.0114   18.2585   30.6989 C   0  0  0  0  0  0  0  0  0  0  0  0
   67.1238   17.5547   29.9641 C   0  0  0  0  0  0  0  0  0  0  0  0
   67.6541   16.3515   30.4444 C   0  0  0  0  0  0  0  0  0  0  0  0
   68.6651   15.6882   29.7417 C   0  0  0  0  0  0  0  0  0  0  0  0
   69.1811   16.2206   28.5519 C   0  0  0  0  0  0  0  0  0  0  0  0
   68.6550   17.4319   28.0806 C   0  0  0  0  0  0  0  0  0  0  0  0
   67.6413   18.0928   28.7788 C   0  0  0  0  0  0  0  0  0  0  0  0
   67.2546   19.0320   28.3882 H   0  0  0  0  0  0  0  0  0  0  0  0
   69.0284   17.8718   27.1582 H   0  0  0  0  0  0  0  0  0  0  0  0
   70.2553   15.5107   27.7462 C   0  0  0  0  0  0  0  0  0  0  0  0
   70.5948   14.1604   28.3810 C   0  0  0  0  0  0  0  0  0  0  0  0
   71.0185   14.2797   29.3843 H   0  0  0  0  0  0  0  0  0  0  0  0
   69.7006   13.5331   28.4698 H   0  0  0  0  0  0  0  0  0  0  0  0
   71.3236   13.6178   27.7696 H   0  0  0  0  0  0  0  0  0  0  0  0
   71.5197   16.3526   27.5539 C   0  0  0  0  0  0  0  0  0  0  0  0
   72.0906   16.4589   28.4825 H   0  0  0  0  0  0  0  0  0  0  0  0
   71.2717   17.3565   27.1926 H   0  0  0  0  0  0  0  0  0  0  0  0
   72.1808   15.8844   26.8163 H   0  0  0  0  0  0  0  0  0  0  0  0
   69.8576   15.3144   26.7413 H   0  0  0  0  0  0  0  0  0  0  0  0
   69.0378   14.7453   30.1344 H   0  0  0  0  0  0  0  0  0  0  0  0
   67.2786   15.9147   31.3672 H   0  0  0  0  0  0  0  0  0  0  0  0
   66.4313   18.7429   31.5890 H   0  0  0  0  0  0  0  0  0  0  0  0
   65.5973   19.0586   30.0737 H   0  0  0  0  0  0  0  0  0  0  0  0
   64.7867   17.3406   28.5265 N   0  0  0  0  0  0  0  0  0  0  0  0
   63.1196   15.8413   26.1553 H   0  0  0  0  0  0  0  0  0  0  0  0
   66.8643   19.2287   26.7331 H   0  0  0  0  0  0  0  0  0  0  0  0
   65.4413   19.3134   27.7854 H   0  0  0  0  0  0  0  0  0  0  0  0
   64.5215   21.8700   27.6113 H   0  0  0  0  0  0  0  0  0  0  0  0
   64.7456   23.1749   23.2356 C   0  0  0  0  0  0  0  0  0  0  0  0
   65.7129   23.3029   22.7388 H   0  0  0  0  0  0  0  0  0  0  0  0
   64.3616   24.1670   23.4933 H   0  0  0  0  0  0  0  0  0  0  0  0
   64.0605   22.7081   22.5209 H   0  0  0  0  0  0  0  0  0  0  0  0
  1  2  1  0  0  0  0
  1  5  1  0  0  0  0
  2  3  2  0  0  0  0
  2 43  1  0  0  0  0
  3  4  1  0  0  0  0
  4  5  2  0  0  0  0
  4 42  1  0  0  0  0
  5  6  1  0  0  0  0
  6  7  1  0  0  0  0
  6 40  1  0  0  0  0
  6 41  1  0  0  0  0
  7  8  1  0  0  0  0
  8  9  1  0  0  0  0
  8 38  2  0  0  0  0
  9 10  1  0  0  0  0
  9 39  1  0  0  0  0
 10 11  2  0  0  0  0
 10 12  1  0  0  0  0
 12 13  2  0  0  0  0
 13 14  1  0  0  0  0
 13 38  1  0  0  0  0
 14 15  1  0  0  0  0
 15 16  1  0  0  0  0
 15 36  1  0  0  0  0
 15 37  1  0  0  0  0
 16 17  1  0  0  0  0
 16 21  2  0  0  0  0
 17 18  2  0  0  0  0
 17 35  1  0  0  0  0
 18 19  1  0  0  0  0
 18 34  1  0  0  0  0
 19 20  2  0  0  0  0
 19 24  1  0  0  0  0
 20 21  1  0  0  0  0
 20 23  1  0  0  0  0
 21 22  1  0  0  0  0
 24 25  1  0  0  0  0
 24 29  1  0  0  0  0
 24 33  1  0  0  0  0
 25 26  1  0  0  0  0
 25 27  1  0  0  0  0
 25 28  1  0  0  0  0
 29 30  1  0  0  0  0
 29 31  1  0  0  0  0
 29 32  1  0  0  0  0
 43 44  1  0  0  0  0
 43 45  1  0  0  0  0
 43 46  1  0  0  0  0
M  END
> <Gold.Goldscore.Fitness>
67.7756

> <Gold.Goldscore.External.HBond>
1.4847

> <Gold.Protein.ActiveResidues>
 GLU87   ILE88   VAL90   ASN91   ALA92   ASP94   ASN95   ARG98   ILE118  ASN120 
 LYS123  GLY124  ILE125  ILE141  PHE142  THR147  SER148  SER149  ASN150  TYR151 
 GLY160  GLY161  ARG162  ASN163  GLY164  TYR165  GLY166  ALA167  LYS168  LEU169 
 THR181  THR215  ILE217  ILE317  GLN376  LYS378  ILE33   TYR34   MG903  

> <Gold.Goldscore.Internal.HBond>
0.0

> <Gold.Goldscore.Internal.Torsion.Weighted>
-4.6232

> <Gold.Protein.RotatedTorsions>
[ 8833 2752 2751 2750 ] final  -92.65 input   60.00 | X-H torsion
[ 6906  969  968  965 ] final -179.89 input   59.99 | X-H torsion
[ 6910  975  974  971 ] final  -12.12 input   60.00 | X-H torsion
[ 6897  962  961  958 ] final   71.11 input   60.00 | X-H torsion
[ 9084 2997 2996 2994 ] final  -38.60 input   60.00 | X-H torsion
[ 7406 1497 1496 1493 ] final  170.76 input   60.00 | X-H torsion
[ 7140 1220 1219 1216 ] final  115.27 input   60.00 | X-H torsion
[ 6926  995  994  992 ] final   25.13 input   60.0

> <Gold.Goldscore.Constraint.Score>
0.0

> <Gold.Id.Protein>
1ZXM|1ZXM_protein|mol2

> <Gold.Protein.RotatedAtoms>
   40.6750    3.3830   41.8637 H   0  0  0  0  0  0  0  0  0  0  0  0  # atno 6897 bound_to 962 
   42.5663   -2.5035   38.2571 H   0  0  0  0  0  0  0  0  0  0  0  0  # atno 6906 bound_to 969 
   38.8111   -4.3840   40.0676 H   0  0  0  0  0  0  0  0  0  0  0  0  # atno 6910 bound_to 975 
   45.8911    1.1244   38.6740 H   0  0  0  0  0  0  0  0  0  0  0  0  # atno 6926 bound_to 995 
   28.0475    0.1168   43.0607 H   0  0  0  0  0  0  0  0  0  0  0  0  # atno 7140 bound_to 1220
   28.2838   -0.9017   41.0

> <Gold.Version>
5.3.0

> <Gold.Goldscore.Internal.Correction>
-0.0166

> <Gold.Goldscore.Internal.Vdw>
-1.3472

> <Gold.Goldscore.Internal.Vdw.Weighted>
-1.3472

> <Gold.Goldscore.External.HBond.Weighted>
1.4847

> <Gold.Goldscore.External.Vdw.Weighted>
72.2447

> <Gold.Goldscore.Internal.HBond.Weighted>
0.0

> <Gold.Goldscore.Hbonds>
donor molecule, donor type, donor heavy atom, donor atom, acceptor molecule, acceptor atom, score
      L1  H     1    27       P1   757  0.74

> <Gold.Goldscore.External.Vdw>
52.5416

> <Gold.Goldscore.Internal.Torsion>
-4.6232

> <Gold.Goldscore.Internal.Correction.Weighted>
-0.0166

> <Gold.Version>
5.3.0

> <Gold.Id.Protein>
1ZXM_2|1ZXM_2_protein|mol2

> <Gold.PLP.Fitness>
63.0165

> <Gold.PLP.PLP>
-55.5667

> <Gold.PLP.part.hbond>
0.0000

> <Gold.PLP.part.metal>
-1.0000

> <Gold.PLP.part.buried>
-5.5523

> <Gold.PLP.part.nonpolar>
-50.5683

> <Gold.PLP.part.repulsive>
0.4018

> <Gold.PLP.ligand.clash>
0.0000

> <Gold.PLP.ligand.torsion>
0.8456

> <Gold.PLP.Chemscore.Hbond>
0.0000

> <Gold.PLP.Chemscore.CHOScore>
1.0000

> <Gold.PLP.Chemscore.Metal>
0.9865

> <Gold.Chemscore.Hbonds>
donor molecule, donor type, donor heavy atom, donor atom, acceptor molecule, acceptor atom, score
      L1  C     4    42       P1  3927  1.00
      P1  M  5931  5931       L1    11  0.99

> <Gold.PLP.Chemscore.Internal.Correction>
0.2217

> <Gold.Protein.RotatedTorsions>
[ 10122 3921 3920 3917 ] final -157.75 input   60.00 | X-H torsion
[ 10128 3927 3926 3923 ] final -109.38 input   60.00 | X-H torsion
[ 10117 3914 3913 3910 ] final  -41.27 input   60.00 | X-H torsion
[ 6043   53   52   50 ] final   87.94 input   60.00 | X-H torsion
[ 10611 4448 4447 4444 ] final   58.47 input   60.00 | X-H torsion
[ 10364 4172 4171 4168 ] final  112.89 input   60.00 | X-H torsion
[ 10142 3947 3946 3944 ] final   17.08 input   60.00 | X-H torsion

> <Gold.Protein.ActiveResidues>
 ILE33   TYR34   GLU87   ILE88   VAL90   ASN91   ALA92   ASP94   ASN95   ARG98  
 ILE118  ASN120  LYS123  GLY124  ILE125  ILE141  PHE142  THR147  SER148  SER149 
 ASN150  TYR151  GLY160  GLY161  ARG162  ASN163  GLY164  TYR165  GLY166  ALA167 
 LYS168  LEU169  THR181  THR215  ILE217  ILE317  GLN376  LYS378  MG904  

> <Gold.Protein.RotatedAtoms>
   67.4353   22.7821   30.6447 H   0  0  0  0  0  0  0  0  0  0  0  0  # atno 6043 bound_to 53  
   60.8434   14.1411   36.1899 H   0  0  0  0  0  0  0  0  0  0  0  0  # atno 10117 bound_to 3914
   58.7892   17.9124   29.5443 H   0  0  0  0  0  0  0  0  0  0  0  0  # atno 10122 bound_to 3921
   64.0873   20.0251   29.3346 H   0  0  0  0  0  0  0  0  0  0  0  0  # atno 10128 bound_to 3927
   56.1159   15.1023   32.5622 H   0  0  0  0  0  0  0  0  0  0  0  0  # atno 10142 bound_to 3947
   74.3132   17.5886   31.4900 H   0  0  0  0  0  0  0  0  0  0  0  0  # atno 10364 bound_to 4172
   74.9045   17.4684   29.2568 H   0  0  0  0  0  0  0  0  0  0  0  0  # atno 10611 bound_to 4448
   60.3264   17.3785   29.5488 LP  0  0  0  0  0  0  0  0  0  0  0  0  # atno 12016 bound_to 3921
   59.9883   18.9063   30.0160 LP  0  0  0  0  0  0  0  0  0  0  0  0  # atno 12017 bound_to 3921
   63.8758   21.2761   28.3156 LP  0  0  0  0  0  0  0  0  0  0  0  0  # atno 12018 bound_to 3927
   62.6366   20.2622   28.6365 LP  0  0  0  0  0  0  0  0  0  0  0  0  # atno 12019 bound_to 3927
   62.1737   14.5450   37.0357 LP  0  0  0  0  0  0  0  0  0  0  0  0  # atno 12024 bound_to 3914
   62.1327   14.7657   35.4182 LP  0  0  0  0  0  0  0  0  0  0  0  0  # atno 12025 bound_to 3914
   68.1886   21.5002   31.3060 LP  0  0  0  0  0  0  0  0  0  0  0  0  # atno 12032 bound_to 53  
   68.5893   23.0143   31.7683 LP  0  0  0  0  0  0  0  0  0  0  0  0  # atno 12033 bound_to 53  
   74.5290   16.8922   30.7316 LP  0  0  0  0  0  0  0  0  0  0  0  0  # atno 12042 bound_to 4448
   73.3706   17.0396   29.5902 LP  0  0  0  0  0  0  0  0  0  0  0  0  # atno 12043 bound_to 4448
   75.7315   18.3024   31.8467 LP  0  0  0  0  0  0  0  0  0  0  0  0  # atno 12050 bound_to 4172
   74.3592   18.7931   32.5833 LP  0  0  0  0  0  0  0  0  0  0  0  0  # atno 12051 bound_to 4172

$$$$
****|SGG-4|sdf|1|dock7
  -GOLD-   9 72315253D 1   1.00000     0.00000

 46 48  0  0  0  0  0  0  0  0  1 V2000
   64.8948   22.6053   23.5027 S   0  0  0  0  0  0  0  0  0  0  0  0
   64.9426   24.2726   23.9142 C   0  0  0  0  0  0  0  0  0  0  0  0
   64.8561   24.5417   25.1987 N   0  0  0  0  0  0  0  0  0  0  0  0
   64.7445   23.3651   25.9121 C   0  0  0  0  0  0  0  0  0  0  0  0
   64.7489   22.2023   25.1653 C   0  0  0  0  0  0  0  0  0  0  0  0
   64.6139   20.7805   25.6060 C   0  0  0  0  0  0  0  0  0  0  0  0
   65.9404   19.7468   24.9044 S   0  0  0  0  0  0  0  0  0  0  0  0
   66.7786   19.3266   26.3914 C   0  0  0  0  0  0  0  0  0  0  0  0
   66.3483   19.8838   27.5859 N   0  0  0  0  0  0  0  0  0  0  0  0
   67.0043   19.5753   28.7712 C   0  0  0  0  0  0  0  0  0  0  0  0
   66.5708   20.1229   29.9808 O   0  0  0  0  0  0  0  0  0  0  0  0
   68.0605   18.7566   28.7442 N   0  0  0  0  0  0  0  0  0  0  0  0
   68.4198   18.2662   27.5517 C   0  0  0  0  0  0  0  0  0  0  0  0
   69.8615   17.2349   27.5235 S   0  0  0  0  0  0  0  0  0  0  0  0
   68.9980   15.6647   27.7875 C   0  0  0  0  0  0  0  0  0  0  0  0
   67.9059   15.7781   28.8205 C   0  0  0  0  0  0  0  0  0  0  0  0
   68.2101   15.8267   30.1860 C   0  0  0  0  0  0  0  0  0  0  0  0
   67.1943   15.9624   31.1375 C   0  0  0  0  0  0  0  0  0  0  0  0
   65.8497   16.0357   30.7473 C   0  0  0  0  0  0  0  0  0  0  0  0
   65.5487   15.9749   29.3791 C   0  0  0  0  0  0  0  0  0  0  0  0
   66.5630   15.8447   28.4273 C   0  0  0  0  0  0  0  0  0  0  0  0
   66.2974   15.7988   27.3730 H   0  0  0  0  0  0  0  0  0  0  0  0
   64.5165   16.0335   29.0400 H   0  0  0  0  0  0  0  0  0  0  0  0
   64.7241   16.2163   31.7509 C   0  0  0  0  0  0  0  0  0  0  0  0
   63.7347   15.0526   31.6596 C   0  0  0  0  0  0  0  0  0  0  0  0
   63.2444   15.0137   30.6806 H   0  0  0  0  0  0  0  0  0  0  0  0
   64.2417   14.0937   31.8162 H   0  0  0  0  0  0  0  0  0  0  0  0
   62.9554   15.1464   32.4234 H   0  0  0  0  0  0  0  0  0  0  0  0
   63.9987   17.5571   31.6084 C   0  0  0  0  0  0  0  0  0  0  0  0
   63.3847   17.6005   30.7025 H   0  0  0  0  0  0  0  0  0  0  0  0
   64.7121   18.3877   31.5735 H   0  0  0  0  0  0  0  0  0  0  0  0
   63.3325   17.7227   32.4622 H   0  0  0  0  0  0  0  0  0  0  0  0
   65.1583   16.2044   32.7599 H   0  0  0  0  0  0  0  0  0  0  0  0
   67.4703   16.0177   32.1877 H   0  0  0  0  0  0  0  0  0  0  0  0
   69.2432   15.7676   30.5216 H   0  0  0  0  0  0  0  0  0  0  0  0
   69.7074   14.8931   28.1111 H   0  0  0  0  0  0  0  0  0  0  0  0
   68.5776   15.3227   26.8343 H   0  0  0  0  0  0  0  0  0  0  0  0
   67.8314   18.5091   26.3744 N   0  0  0  0  0  0  0  0  0  0  0  0
   65.5572   20.5122   27.5849 H   0  0  0  0  0  0  0  0  0  0  0  0
   64.6720   20.7417   26.7002 H   0  0  0  0  0  0  0  0  0  0  0  0
   63.6443   20.3687   25.3059 H   0  0  0  0  0  0  0  0  0  0  0  0
   64.6615   23.4149   26.9915 H   0  0  0  0  0  0  0  0  0  0  0  0
   65.0569   25.3026   22.8467 C   0  0  0  0  0  0  0  0  0  0  0  0
   65.9400   25.1135   22.2277 H   0  0  0  0  0  0  0  0  0  0  0  0
   65.1591   26.2980   23.2902 H   0  0  0  0  0  0  0  0  0  0  0  0
   64.1805   25.2989   22.1908 H   0  0  0  0  0  0  0  0  0  0  0  0
  1  2  1  0  0  0  0
  1  5  1  0  0  0  0
  2  3  2  0  0  0  0
  2 43  1  0  0  0  0
  3  4  1  0  0  0  0
  4  5  2  0  0  0  0
  4 42  1  0  0  0  0
  5  6  1  0  0  0  0
  6  7  1  0  0  0  0
  6 40  1  0  0  0  0
  6 41  1  0  0  0  0
  7  8  1  0  0  0  0
  8  9  1  0  0  0  0
  8 38  2  0  0  0  0
  9 10  1  0  0  0  0
  9 39  1  0  0  0  0
 10 11  2  0  0  0  0
 10 12  1  0  0  0  0
 12 13  2  0  0  0  0
 13 14  1  0  0  0  0
 13 38  1  0  0  0  0
 14 15  1  0  0  0  0
 15 16  1  0  0  0  0
 15 36  1  0  0  0  0
 15 37  1  0  0  0  0
 16 17  1  0  0  0  0
 16 21  2  0  0  0  0
 17 18  2  0  0  0  0
 17 35  1  0  0  0  0
 18 19  1  0  0  0  0
 18 34  1  0  0  0  0
 19 20  2  0  0  0  0
 19 24  1  0  0  0  0
 20 21  1  0  0  0  0
 20 23  1  0  0  0  0
 21 22  1  0  0  0  0
 24 25  1  0  0  0  0
 24 29  1  0  0  0  0
 24 33  1  0  0  0  0
 25 26  1  0  0  0  0
 25 27  1  0  0  0  0
 25 28  1  0  0  0  0
 29 30  1  0  0  0  0
 29 31  1  0  0  0  0
 29 32  1  0  0  0  0
 43 44  1  0  0  0  0
 43 45  1  0  0  0  0
 43 46  1  0  0  0  0
M  END
> <Gold.Goldscore.Fitness>
67.7756

> <Gold.Goldscore.External.HBond>
1.4847

> <Gold.Protein.ActiveResidues>
 GLU87   ILE88   VAL90   ASN91   ALA92   ASP94   ASN95   ARG98   ILE118  ASN120 
 LYS123  GLY124  ILE125  ILE141  PHE142  THR147  SER148  SER149  ASN150  TYR151 
 GLY160  GLY161  ARG162  ASN163  GLY164  TYR165  GLY166  ALA167  LYS168  LEU169 
 THR181  THR215  ILE217  ILE317  GLN376  LYS378  ILE33   TYR34   MG903  

> <Gold.Goldscore.Internal.HBond>
0.0

> <Gold.Goldscore.Internal.Torsion.Weighted>
-4.6232

> <Gold.Protein.RotatedTorsions>
[ 8833 2752 2751 2750 ] final  -92.65 input   60.00 | X-H torsion
[ 6906  969  968  965 ] final -179.89 input   59.99 | X-H torsion
[ 6910  975  974  971 ] final  -12.12 input   60.00 | X-H torsion
[ 6897  962  961  958 ] final   71.11 input   60.00 | X-H torsion
[ 9084 2997 2996 2994 ] final  -38.60 input   60.00 | X-H torsion
[ 7406 1497 1496 1493 ] final  170.76 input   60.00 | X-H torsion
[ 7140 1220 1219 1216 ] final  115.27 input   60.00 | X-H torsion
[ 6926  995  994  992 ] final   25.13 input   60.0

> <Gold.Goldscore.Constraint.Score>
0.0

> <Gold.Id.Protein>
1ZXM|1ZXM_protein|mol2

> <Gold.Protein.RotatedAtoms>
   40.6750    3.3830   41.8637 H   0  0  0  0  0  0  0  0  0  0  0  0  # atno 6897 bound_to 962 
   42.5663   -2.5035   38.2571 H   0  0  0  0  0  0  0  0  0  0  0  0  # atno 6906 bound_to 969 
   38.8111   -4.3840   40.0676 H   0  0  0  0  0  0  0  0  0  0  0  0  # atno 6910 bound_to 975 
   45.8911    1.1244   38.6740 H   0  0  0  0  0  0  0  0  0  0  0  0  # atno 6926 bound_to 995 
   28.0475    0.1168   43.0607 H   0  0  0  0  0  0  0  0  0  0  0  0  # atno 7140 bound_to 1220
   28.2838   -0.9017   41.0

> <Gold.Version>
5.3.0

> <Gold.Goldscore.Internal.Correction>
-0.0166

> <Gold.Goldscore.Internal.Vdw>
-1.3472

> <Gold.Goldscore.Internal.Vdw.Weighted>
-1.3472

> <Gold.Goldscore.External.HBond.Weighted>
1.4847

> <Gold.Goldscore.External.Vdw.Weighted>
72.2447

> <Gold.Goldscore.Internal.HBond.Weighted>
0.0

> <Gold.Goldscore.Hbonds>
donor molecule, donor type, donor heavy atom, donor atom, acceptor molecule, acceptor atom, score
      L1  H     1    27       P1   757  0.74

> <Gold.Goldscore.External.Vdw>
52.5416

> <Gold.Goldscore.Internal.Torsion>
-4.6232

> <Gold.Goldscore.Internal.Correction.Weighted>
-0.0166

> <Gold.Version>
5.3.0

> <Gold.Id.Protein>
1ZXM_2|1ZXM_2_protein|mol2

> <Gold.PLP.Fitness>
61.2794

> <Gold.PLP.PLP>
-59.7883

> <Gold.PLP.part.hbond>
-1.4403

> <Gold.PLP.part.metal>
0.0000

> <Gold.PLP.part.buried>
-6.1342

> <Gold.PLP.part.nonpolar>
-53.7044

> <Gold.PLP.part.repulsive>
0.2459

> <Gold.PLP.ligand.clash>
0.0000

> <Gold.PLP.ligand.torsion>
1.1511

> <Gold.PLP.Chemscore.Hbond>
1.2145

> <Gold.PLP.Chemscore.CHOScore>
0.0000

> <Gold.PLP.Chemscore.Metal>
0.0000

> <Gold.Chemscore.Hbonds>
donor molecule, donor type, donor heavy atom, donor atom, acceptor molecule, acceptor atom, score
      P1  H  3927 10128       L1    11  0.21
      P1  H    53  6043       L1    11  1.00

> <Gold.PLP.Chemscore.Internal.Correction>
0.1498

> <Gold.Protein.RotatedTorsions>
[ 10122 3921 3920 3917 ] final   68.43 input   60.00 | X-H torsion
[ 10128 3927 3926 3923 ] final -142.40 input   60.00 | X-H torsion
[ 10117 3914 3913 3910 ] final  -53.08 input   60.00 | X-H torsion
[ 6043   53   52   50 ] final   12.24 input   60.00 | X-H torsion
[ 10611 4448 4447 4444 ] final -126.96 input   60.00 | X-H torsion
[ 10364 4172 4171 4168 ] final -128.11 input   60.00 | X-H torsion
[ 10142 3947 3946 3944 ] final -109.04 input   60.00 | X-H torsion

> <Gold.Protein.ActiveResidues>
 ILE33   TYR34   GLU87   ILE88   VAL90   ASN91   ALA92   ASP94   ASN95   ARG98  
 ILE118  ASN120  LYS123  GLY124  ILE125  ILE141  PHE142  THR147  SER148  SER149 
 ASN150  TYR151  GLY160  GLY161  ARG162  ASN163  GLY164  TYR165  GLY166  ALA167 
 LYS168  LEU169  THR181  THR215  ILE217  ILE317  GLN376  LYS378  MG904  

> <Gold.Protein.RotatedAtoms>
   67.6895   21.6781   30.8356 H   0  0  0  0  0  0  0  0  0  0  0  0  # atno 6043 bound_to 53  
   60.8666   14.1225   36.3802 H   0  0  0  0  0  0  0  0  0  0  0  0  # atno 10117 bound_to 3914
   60.4688   17.5386   29.6216 H   0  0  0  0  0  0  0  0  0  0  0  0  # atno 10122 bound_to 3921
   64.3851   20.4219   29.1423 H   0  0  0  0  0  0  0  0  0  0  0  0  # atno 10128 bound_to 3927
   55.5984   15.5934   34.0712 H   0  0  0  0  0  0  0  0  0  0  0  0  # atno 10142 bound_to 3947
   74.3484   18.7803   32.5770 H   0  0  0  0  0  0  0  0  0  0  0  0  # atno 10364 bound_to 4172
   73.5751   16.8066   30.3938 H   0  0  0  0  0  0  0  0  0  0  0  0  # atno 10611 bound_to 4448
   59.7669   18.9556   30.0058 LP  0  0  0  0  0  0  0  0  0  0  0  0  # atno 12016 bound_to 3921
   58.8562   17.7058   29.4811 LP  0  0  0  0  0  0  0  0  0  0  0  0  # atno 12017 bound_to 3921
   63.3630   21.2301   28.1675 LP  0  0  0  0  0  0  0  0  0  0  0  0  # atno 12018 bound_to 3927
   62.8496   19.9087   28.9781 LP  0  0  0  0  0  0  0  0  0  0  0  0  # atno 12019 bound_to 3927
   62.3169   14.6180   36.9272 LP  0  0  0  0  0  0  0  0  0  0  0  0  # atno 12024 bound_to 3914
   61.9660   14.7114   35.3351 LP  0  0  0  0  0  0  0  0  0  0  0  0  # atno 12025 bound_to 3914
   68.7466   22.3311   31.8864 LP  0  0  0  0  0  0  0  0  0  0  0  0  # atno 12032 bound_to 53  
   67.7753   23.2952   30.9955 LP  0  0  0  0  0  0  0  0  0  0  0  0  # atno 12033 bound_to 53  
   74.0950   17.4002   28.9706 LP  0  0  0  0  0  0  0  0  0  0  0  0  # atno 12042 bound_to 4448
   75.1434   17.1980   30.2062 LP  0  0  0  0  0  0  0  0  0  0  0  0  # atno 12043 bound_to 4448
   74.3234   17.5809   31.4775 LP  0  0  0  0  0  0  0  0  0  0  0  0  # atno 12050 bound_to 4172
   75.7318   18.3146   31.8578 LP  0  0  0  0  0  0  0  0  0  0  0  0  # atno 12051 bound_to 4172

$$$$
****|SGG-4|sdf|1|dock2
  -GOLD-   9 72315253D 1   1.00000     0.00000

 46 48  0  0  0  0  0  0  0  0  1 V2000
   65.0332   23.9448   24.7956 S   0  0  0  0  0  0  0  0  0  0  0  0
   63.6588   24.9246   24.4755 C   0  0  0  0  0  0  0  0  0  0  0  0
   62.4990   24.3975   24.8024 N   0  0  0  0  0  0  0  0  0  0  0  0
   62.6959   23.1414   25.3400 C   0  0  0  0  0  0  0  0  0  0  0  0
   64.0088   22.7178   25.4222 C   0  0  0  0  0  0  0  0  0  0  0  0
   64.5679   21.4212   25.9124 C   0  0  0  0  0  0  0  0  0  0  0  0
   65.5577   20.6024   24.6200 S   0  0  0  0  0  0  0  0  0  0  0  0
   65.9837   19.1340   25.4875 C   0  0  0  0  0  0  0  0  0  0  0  0
   64.9765   18.2558   25.8576 N   0  0  0  0  0  0  0  0  0  0  0  0
   65.2895   17.0955   26.5549 C   0  0  0  0  0  0  0  0  0  0  0  0
   64.2829   16.1996   26.9219 O   0  0  0  0  0  0  0  0  0  0  0  0
   66.5619   16.8472   26.8805 N   0  0  0  0  0  0  0  0  0  0  0  0
   67.4751   17.7467   26.4953 C   0  0  0  0  0  0  0  0  0  0  0  0
   69.1485   17.4359   26.9916 S   0  0  0  0  0  0  0  0  0  0  0  0
   69.0023   18.1295   28.6584 C   0  0  0  0  0  0  0  0  0  0  0  0
   67.9160   17.4624   29.4633 C   0  0  0  0  0  0  0  0  0  0  0  0
   67.9305   16.0801   29.6839 C   0  0  0  0  0  0  0  0  0  0  0  0
   66.9364   15.4719   30.4569 C   0  0  0  0  0  0  0  0  0  0  0  0
   65.8955   16.2286   31.0132 C   0  0  0  0  0  0  0  0  0  0  0  0
   65.8785   17.6112   30.7799 C   0  0  0  0  0  0  0  0  0  0  0  0
   66.8740   18.2207   30.0124 C   0  0  0  0  0  0  0  0  0  0  0  0
   66.8325   19.2957   29.8480 H   0  0  0  0  0  0  0  0  0  0  0  0
   65.0883   18.2301   31.2000 H   0  0  0  0  0  0  0  0  0  0  0  0
   64.8184   15.6063   31.8846 C   0  0  0  0  0  0  0  0  0  0  0  0
   65.0357   14.0965   32.0066 C   0  0  0  0  0  0  0  0  0  0  0  0
   64.9472   13.5949   31.0366 H   0  0  0  0  0  0  0  0  0  0  0  0
   66.0318   13.8749   32.4062 H   0  0  0  0  0  0  0  0  0  0  0  0
   64.2983   13.6529   32.6840 H   0  0  0  0  0  0  0  0  0  0  0  0
   63.3989   15.9122   31.3991 C   0  0  0  0  0  0  0  0  0  0  0  0
   63.1544   15.3785   30.4745 H   0  0  0  0  0  0  0  0  0  0  0  0
   63.2693   16.9843   31.2152 H   0  0  0  0  0  0  0  0  0  0  0  0
   62.6645   15.6102   32.1540 H   0  0  0  0  0  0  0  0  0  0  0  0
   64.9009   16.0360   32.8921 H   0  0  0  0  0  0  0  0  0  0  0  0
   66.9921   14.3991   30.6241 H   0  0  0  0  0  0  0  0  0  0  0  0
   68.7220   15.4644   29.2622 H   0  0  0  0  0  0  0  0  0  0  0  0
   68.7876   19.2038   28.6032 H   0  0  0  0  0  0  0  0  0  0  0  0
   69.9650   18.0292   29.1736 H   0  0  0  0  0  0  0  0  0  0  0  0
   67.2502   18.8768   25.8144 N   0  0  0  0  0  0  0  0  0  0  0  0
   64.0187   18.4674   25.6157 H   0  0  0  0  0  0  0  0  0  0  0  0
   65.2071   21.6170   26.7814 H   0  0  0  0  0  0  0  0  0  0  0  0
   63.7666   20.7452   26.2299 H   0  0  0  0  0  0  0  0  0  0  0  0
   61.8329   22.5695   25.6604 H   0  0  0  0  0  0  0  0  0  0  0  0
   63.8258   26.2650   23.8518 C   0  0  0  0  0  0  0  0  0  0  0  0
   64.5094   26.8796   24.4466 H   0  0  0  0  0  0  0  0  0  0  0  0
   62.8620   26.7813   23.7999 H   0  0  0  0  0  0  0  0  0  0  0  0
   64.2376   26.1880   22.8406 H   0  0  0  0  0  0  0  0  0  0  0  0
  1  2  1  0  0  0  0
  1  5  1  0  0  0  0
  2  3  2  0  0  0  0
  2 43  1  0  0  0  0
  3  4  1  0  0  0  0
  4  5  2  0  0  0  0
  4 42  1  0  0  0  0
  5  6  1  0  0  0  0
  6  7  1  0  0  0  0
  6 40  1  0  0  0  0
  6 41  1  0  0  0  0
  7  8  1  0  0  0  0
  8  9  1  0  0  0  0
  8 38  2  0  0  0  0
  9 10  1  0  0  0  0
  9 39  1  0  0  0  0
 10 11  2  0  0  0  0
 10 12  1  0  0  0  0
 12 13  2  0  0  0  0
 13 14  1  0  0  0  0
 13 38  1  0  0  0  0
 14 15  1  0  0  0  0
 15 16  1  0  0  0  0
 15 36  1  0  0  0  0
 15 37  1  0  0  0  0
 16 17  1  0  0  0  0
 16 21  2  0  0  0  0
 17 18  2  0  0  0  0
 17 35  1  0  0  0  0
 18 19  1  0  0  0  0
 18 34  1  0  0  0  0
 19 20  2  0  0  0  0
 19 24  1  0  0  0  0
 20 21  1  0  0  0  0
 20 23  1  0  0  0  0
 21 22  1  0  0  0  0
 24 25  1  0  0  0  0
 24 29  1  0  0  0  0
 24 33  1  0  0  0  0
 25 26  1  0  0  0  0
 25 27  1  0  0  0  0
 25 28  1  0  0  0  0
 29 30  1  0  0  0  0
 29 31  1  0  0  0  0
 29 32  1  0  0  0  0
 43 44  1  0  0  0  0
 43 45  1  0  0  0  0
 43 46  1  0  0  0  0
M  END
> <Gold.Goldscore.Fitness>
67.7756

> <Gold.Goldscore.External.HBond>
1.4847

> <Gold.Protein.ActiveResidues>
 GLU87   ILE88   VAL90   ASN91   ALA92   ASP94   ASN95   ARG98   ILE118  ASN120 
 LYS123  GLY124  ILE125  ILE141  PHE142  THR147  SER148  SER149  ASN150  TYR151 
 GLY160  GLY161  ARG162  ASN163  GLY164  TYR165  GLY166  ALA167  LYS168  LEU169 
 THR181  THR215  ILE217  ILE317  GLN376  LYS378  ILE33   TYR34   MG903  

> <Gold.Goldscore.Internal.HBond>
0.0

> <Gold.Goldscore.Internal.Torsion.Weighted>
-4.6232

> <Gold.Protein.RotatedTorsions>
[ 8833 2752 2751 2750 ] final  -92.65 input   60.00 | X-H torsion
[ 6906  969  968  965 ] final -179.89 input   59.99 | X-H torsion
[ 6910  975  974  971 ] final  -12.12 input   60.00 | X-H torsion
[ 6897  962  961  958 ] final   71.11 input   60.00 | X-H torsion
[ 9084 2997 2996 2994 ] final  -38.60 input   60.00 | X-H torsion
[ 7406 1497 1496 1493 ] final  170.76 input   60.00 | X-H torsion
[ 7140 1220 1219 1216 ] final  115.27 input   60.00 | X-H torsion
[ 6926  995  994  992 ] final   25.13 input   60.0

> <Gold.Goldscore.Constraint.Score>
0.0

> <Gold.Id.Protein>
1ZXM|1ZXM_protein|mol2

> <Gold.Protein.RotatedAtoms>
   40.6750    3.3830   41.8637 H   0  0  0  0  0  0  0  0  0  0  0  0  # atno 6897 bound_to 962 
   42.5663   -2.5035   38.2571 H   0  0  0  0  0  0  0  0  0  0  0  0  # atno 6906 bound_to 969 
   38.8111   -4.3840   40.0676 H   0  0  0  0  0  0  0  0  0  0  0  0  # atno 6910 bound_to 975 
   45.8911    1.1244   38.6740 H   0  0  0  0  0  0  0  0  0  0  0  0  # atno 6926 bound_to 995 
   28.0475    0.1168   43.0607 H   0  0  0  0  0  0  0  0  0  0  0  0  # atno 7140 bound_to 1220
   28.2838   -0.9017   41.0

> <Gold.Version>
5.3.0

> <Gold.Goldscore.Internal.Correction>
-0.0166

> <Gold.Goldscore.Internal.Vdw>
-1.3472

> <Gold.Goldscore.Internal.Vdw.Weighted>
-1.3472

> <Gold.Goldscore.External.HBond.Weighted>
1.4847

> <Gold.Goldscore.External.Vdw.Weighted>
72.2447

> <Gold.Goldscore.Internal.HBond.Weighted>
0.0

> <Gold.Goldscore.Hbonds>
donor molecule, donor type, donor heavy atom, donor atom, acceptor molecule, acceptor atom, score
      L1  H     1    27       P1   757  0.74

> <Gold.Goldscore.External.Vdw>
52.5416

> <Gold.Goldscore.Internal.Torsion>
-4.6232

> <Gold.Goldscore.Internal.Correction.Weighted>
-0.0166

> <Gold.Version>
5.3.0

> <Gold.Id.Protein>
1ZXM_2|1ZXM_2_protein|mol2

> <Gold.PLP.Fitness>
59.9926

> <Gold.PLP.PLP>
-57.6063

> <Gold.PLP.part.hbond>
0.0000

> <Gold.PLP.part.metal>
0.0000

> <Gold.PLP.part.buried>
-4.7724

> <Gold.PLP.part.nonpolar>
-54.3186

> <Gold.PLP.part.repulsive>
0.4951

> <Gold.PLP.ligand.clash>
0.0000

> <Gold.PLP.ligand.torsion>
0.4177

> <Gold.PLP.Chemscore.Hbond>
0.0000

> <Gold.PLP.Chemscore.CHOScore>
1.0000

> <Gold.PLP.Chemscore.Metal>
0.0000

> <Gold.Chemscore.Hbonds>
donor molecule, donor type, donor heavy atom, donor atom, acceptor molecule, acceptor atom, score
      L1  C     4    42       P1  3934  1.00

> <Gold.PLP.Chemscore.Internal.Correction>
0.2217

> <Gold.Protein.RotatedTorsions>
[ 10122 3921 3920 3917 ] final    9.73 input   60.00 | X-H torsion
[ 10128 3927 3926 3923 ] final -129.96 input   60.00 | X-H torsion
[ 10117 3914 3913 3910 ] final   -5.63 input   60.00 | X-H torsion
[ 6043   53   52   50 ] final  172.22 input   60.00 | X-H torsion
[ 10611 4448 4447 4444 ] final   72.73 input   60.00 | X-H torsion
[ 10364 4172 4171 4168 ] final -154.16 input   60.00 | X-H torsion
[ 10142 3947 3946 3944 ] final  173.34 input   60.00 | X-H torsion

> <Gold.Protein.ActiveResidues>
 ILE33   TYR34   GLU87   ILE88   VAL90   ASN91   ALA92   ASP94   ASN95   ARG98  
 ILE118  ASN120  LYS123  GLY124  ILE125  ILE141  PHE142  THR147  SER148  SER149 
 ASN150  TYR151  GLY160  GLY161  ARG162  ASN163  GLY164  TYR165  GLY166  ALA167 
 LYS168  LEU169  THR181  THR215  ILE217  ILE317  GLN376  LYS378  MG904  

> <Gold.Protein.RotatedAtoms>
   68.2339   23.3315   31.4438 H   0  0  0  0  0  0  0  0  0  0  0  0  # atno 6043 bound_to 53  
   60.9927   14.2791   35.6543 H   0  0  0  0  0  0  0  0  0  0  0  0  # atno 10117 bound_to 3914
   60.5451   18.4036   29.9183 H   0  0  0  0  0  0  0  0  0  0  0  0  # atno 10122 bound_to 3921
   64.3017   20.2610   29.2336 H   0  0  0  0  0  0  0  0  0  0  0  0  # atno 10128 bound_to 3927
   56.7600   15.7363   34.1560 H   0  0  0  0  0  0  0  0  0  0  0  0  # atno 10142 bound_to 3947
   74.0397   18.5392   32.4200 H   0  0  0  0  0  0  0  0  0  0  0  0  # atno 10364 bound_to 4172
   74.7214   17.4788   29.1142 H   0  0  0  0  0  0  0  0  0  0  0  0  # atno 10611 bound_to 4448
   58.9361   18.6120   29.7919 LP  0  0  0  0  0  0  0  0  0  0  0  0  # atno 12016 bound_to 3921
   59.6102   17.1782   29.3963 LP  0  0  0  0  0  0  0  0  0  0  0  0  # atno 12017 bound_to 3921
   63.5588   21.2770   28.2020 LP  0  0  0  0  0  0  0  0  0  0  0  0  # atno 12018 bound_to 3927
   62.7378   20.0238   28.8517 LP  0  0  0  0  0  0  0  0  0  0  0  0  # atno 12019 bound_to 3927
   61.6523   14.3216   37.1413 LP  0  0  0  0  0  0  0  0  0  0  0  0  # atno 12024 bound_to 3914
   62.5037   14.8500   35.8519 LP  0  0  0  0  0  0  0  0  0  0  0  0  # atno 12025 bound_to 3914
   67.4174   22.2081   30.5956 LP  0  0  0  0  0  0  0  0  0  0  0  0  # atno 12032 bound_to 53  
   68.5562   21.7531   31.6739 LP  0  0  0  0  0  0  0  0  0  0  0  0  # atno 12033 bound_to 53  
   74.7397   16.9613   30.6568 LP  0  0  0  0  0  0  0  0  0  0  0  0  # atno 12042 bound_to 4448
   73.3443   16.9600   29.8087 LP  0  0  0  0  0  0  0  0  0  0  0  0  # atno 12043 bound_to 4448
   74.7234   17.5270   31.3447 LP  0  0  0  0  0  0  0  0  0  0  0  0  # atno 12050 bound_to 4172
   75.6426   18.6112   32.1487 LP  0  0  0  0  0  0  0  0  0  0  0  0  # atno 12051 bound_to 4172

$$$$
****|SGG-4|sdf|1|dock3
  -GOLD-   9 72315253D 1   1.00000     0.00000

 46 48  0  0  0  0  0  0  0  0  1 V2000
   63.6722   23.1874   23.1215 S   0  0  0  0  0  0  0  0  0  0  0  0
   63.3623   24.8598   23.3632 C   0  0  0  0  0  0  0  0  0  0  0  0
   63.4860   25.2856   24.6014 N   0  0  0  0  0  0  0  0  0  0  0  0
   63.8477   24.2338   25.4191 C   0  0  0  0  0  0  0  0  0  0  0  0
   64.0002   23.0091   24.7973 C   0  0  0  0  0  0  0  0  0  0  0  0
   64.3464   21.6764   25.3786 C   0  0  0  0  0  0  0  0  0  0  0  0
   65.8325   20.9805   24.5865 S   0  0  0  0  0  0  0  0  0  0  0  0
   66.0668   19.5794   25.6221 C   0  0  0  0  0  0  0  0  0  0  0  0
   65.0121   18.6993   25.8110 N   0  0  0  0  0  0  0  0  0  0  0  0
   65.1715   17.5924   26.6354 C   0  0  0  0  0  0  0  0  0  0  0  0
   64.1181   16.6945   26.8225 O   0  0  0  0  0  0  0  0  0  0  0  0
   66.3390   17.3978   27.2563 N   0  0  0  0  0  0  0  0  0  0  0  0
   67.3054   18.2957   27.0301 C   0  0  0  0  0  0  0  0  0  0  0  0
   68.8253   18.0597   27.9118 S   0  0  0  0  0  0  0  0  0  0  0  0
   68.2324   18.6662   29.5123 C   0  0  0  0  0  0  0  0  0  0  0  0
   67.1060   17.8280   30.0611 C   0  0  0  0  0  0  0  0  0  0  0  0
   65.8812   18.4092   30.4099 C   0  0  0  0  0  0  0  0  0  0  0  0
   64.8301   17.6214   30.8900 C   0  0  0  0  0  0  0  0  0  0  0  0
   64.9845   16.2370   31.0485 C   0  0  0  0  0  0  0  0  0  0  0  0
   66.2168   15.6607   30.7089 C   0  0  0  0  0  0  0  0  0  0  0  0
   67.2658   16.4459   30.2241 C   0  0  0  0  0  0  0  0  0  0  0  0
   68.2107   15.9694   29.9706 H   0  0  0  0  0  0  0  0  0  0  0  0
   66.3705   14.5888   30.8147 H   0  0  0  0  0  0  0  0  0  0  0  0
   63.8543   15.3470   31.5356 C   0  0  0  0  0  0  0  0  0  0  0  0
   64.3137   13.8890   31.6040 C   0  0  0  0  0  0  0  0  0  0  0  0
   64.5797   13.5014   30.6143 H   0  0  0  0  0  0  0  0  0  0  0  0
   65.1931   13.7848   32.2496 H   0  0  0  0  0  0  0  0  0  0  0  0
   63.5220   13.2526   32.0135 H   0  0  0  0  0  0  0  0  0  0  0  0
   62.5808   15.4753   30.6953 C   0  0  0  0  0  0  0  0  0  0  0  0
   62.6934   15.0255   29.7031 H   0  0  0  0  0  0  0  0  0  0  0  0
   62.3037   16.5265   30.5606 H   0  0  0  0  0  0  0  0  0  0  0  0
   61.7449   14.9687   31.1902 H   0  0  0  0  0  0  0  0  0  0  0  0
   63.5864   15.6586   32.5543 H   0  0  0  0  0  0  0  0  0  0  0  0
   63.8867   18.1050   31.1309 H   0  0  0  0  0  0  0  0  0  0  0  0
   65.7312   19.4814   30.3030 H   0  0  0  0  0  0  0  0  0  0  0  0
   67.8843   19.7022   29.4184 H   0  0  0  0  0  0  0  0  0  0  0  0
   69.0684   18.6805   30.2217 H   0  0  0  0  0  0  0  0  0  0  0  0
   67.2285   19.3759   26.2435 N   0  0  0  0  0  0  0  0  0  0  0  0
   64.1321   18.8706   25.3450 H   0  0  0  0  0  0  0  0  0  0  0  0
   64.5368   21.7966   26.4517 H   0  0  0  0  0  0  0  0  0  0  0  0
   63.5164   20.9713   25.2612 H   0  0  0  0  0  0  0  0  0  0  0  0
   63.9889   24.4199   26.4774 H   0  0  0  0  0  0  0  0  0  0  0  0
   62.9659   25.7197   22.2155 C   0  0  0  0  0  0  0  0  0  0  0  0
   63.7127   25.6579   21.4173 H   0  0  0  0  0  0  0  0  0  0  0  0
   62.8928   26.7647   22.5328 H   0  0  0  0  0  0  0  0  0  0  0  0
   62.0022   25.4114   21.7979 H   0  0  0  0  0  0  0  0  0  0  0  0
  1  2  1  0  0  0  0
  1  5  1  0  0  0  0
  2  3  2  0  0  0  0
  2 43  1  0  0  0  0
  3  4  1  0  0  0  0
  4  5  2  0  0  0  0
  4 42  1  0  0  0  0
  5  6  1  0  0  0  0
  6  7  1  0  0  0  0
  6 40  1  0  0  0  0
  6 41  1  0  0  0  0
  7  8  1  0  0  0  0
  8  9  1  0  0  0  0
  8 38  2  0  0  0  0
  9 10  1  0  0  0  0
  9 39  1  0  0  0  0
 10 11  2  0  0  0  0
 10 12  1  0  0  0  0
 12 13  2  0  0  0  0
 13 14  1  0  0  0  0
 13 38  1  0  0  0  0
 14 15  1  0  0  0  0
 15 16  1  0  0  0  0
 15 36  1  0  0  0  0
 15 37  1  0  0  0  0
 16 17  1  0  0  0  0
 16 21  2  0  0  0  0
 17 18  2  0  0  0  0
 17 35  1  0  0  0  0
 18 19  1  0  0  0  0
 18 34  1  0  0  0  0
 19 20  2  0  0  0  0
 19 24  1  0  0  0  0
 20 21  1  0  0  0  0
 20 23  1  0  0  0  0
 21 22  1  0  0  0  0
 24 25  1  0  0  0  0
 24 29  1  0  0  0  0
 24 33  1  0  0  0  0
 25 26  1  0  0  0  0
 25 27  1  0  0  0  0
 25 28  1  0  0  0  0
 29 30  1  0  0  0  0
 29 31  1  0  0  0  0
 29 32  1  0  0  0  0
 43 44  1  0  0  0  0
 43 45  1  0  0  0  0
 43 46  1  0  0  0  0
M  END
> <Gold.Goldscore.Fitness>
67.7756

> <Gold.Goldscore.External.HBond>
1.4847

> <Gold.Protein.ActiveResidues>
 GLU87   ILE88   VAL90   ASN91   ALA92   ASP94   ASN95   ARG98   ILE118  ASN120 
 LYS123  GLY124  ILE125  ILE141  PHE142  THR147  SER148  SER149  ASN150  TYR151 
 GLY160  GLY161  ARG162  ASN163  GLY164  TYR165  GLY166  ALA167  LYS168  LEU169 
 THR181  THR215  ILE217  ILE317  GLN376  LYS378  ILE33   TYR34   MG903  

> <Gold.Goldscore.Internal.HBond>
0.0

> <Gold.Goldscore.Internal.Torsion.Weighted>
-4.6232

> <Gold.Protein.RotatedTorsions>
[ 8833 2752 2751 2750 ] final  -92.65 input   60.00 | X-H torsion
[ 6906  969  968  965 ] final -179.89 input   59.99 | X-H torsion
[ 6910  975  974  971 ] final  -12.12 input   60.00 | X-H torsion
[ 6897  962  961  958 ] final   71.11 input   60.00 | X-H torsion
[ 9084 2997 2996 2994 ] final  -38.60 input   60.00 | X-H torsion
[ 7406 1497 1496 1493 ] final  170.76 input   60.00 | X-H torsion
[ 7140 1220 1219 1216 ] final  115.27 input   60.00 | X-H torsion
[ 6926  995  994  992 ] final   25.13 input   60.0

> <Gold.Goldscore.Constraint.Score>
0.0

> <Gold.Id.Protein>
1ZXM|1ZXM_protein|mol2

> <Gold.Protein.RotatedAtoms>
   40.6750    3.3830   41.8637 H   0  0  0  0  0  0  0  0  0  0  0  0  # atno 6897 bound_to 962 
   42.5663   -2.5035   38.2571 H   0  0  0  0  0  0  0  0  0  0  0  0  # atno 6906 bound_to 969 
   38.8111   -4.3840   40.0676 H   0  0  0  0  0  0  0  0  0  0  0  0  # atno 6910 bound_to 975 
   45.8911    1.1244   38.6740 H   0  0  0  0  0  0  0  0  0  0  0  0  # atno 6926 bound_to 995 
   28.0475    0.1168   43.0607 H   0  0  0  0  0  0  0  0  0  0  0  0  # atno 7140 bound_to 1220
   28.2838   -0.9017   41.0

> <Gold.Version>
5.3.0

> <Gold.Goldscore.Internal.Correction>
-0.0166

> <Gold.Goldscore.Internal.Vdw>
-1.3472

> <Gold.Goldscore.Internal.Vdw.Weighted>
-1.3472

> <Gold.Goldscore.External.HBond.Weighted>
1.4847

> <Gold.Goldscore.External.Vdw.Weighted>
72.2447

> <Gold.Goldscore.Internal.HBond.Weighted>
0.0

> <Gold.Goldscore.Hbonds>
donor molecule, donor type, donor heavy atom, donor atom, acceptor molecule, acceptor atom, score
      L1  H     1    27       P1   757  0.74

> <Gold.Goldscore.External.Vdw>
52.5416

> <Gold.Goldscore.Internal.Torsion>
-4.6232

> <Gold.Goldscore.Internal.Correction.Weighted>
-0.0166

> <Gold.Version>
5.3.0

> <Gold.Id.Protein>
1ZXM_2|1ZXM_2_protein|mol2

> <Gold.PLP.Fitness>
58.6934

> <Gold.PLP.PLP>
-59.1280

> <Gold.PLP.part.hbond>
-0.3688

> <Gold.PLP.part.metal>
0.0000

> <Gold.PLP.part.buried>
-7.7060

> <Gold.PLP.part.nonpolar>
-51.2813

> <Gold.PLP.part.repulsive>
0.2956

> <Gold.PLP.ligand.clash>
0.0011

> <Gold.PLP.ligand.torsion>
0.3276

> <Gold.PLP.Chemscore.Hbond>
0.0000

> <Gold.PLP.Chemscore.CHOScore>
0.0000

> <Gold.PLP.Chemscore.Metal>
0.0000

> <Gold.PLP.Chemscore.Internal.Correction>
0.2217

> <Gold.Protein.RotatedTorsions>
[ 10122 3921 3920 3917 ] final   60.40 input   60.00 | X-H torsion
[ 10128 3927 3926 3923 ] final  -70.03 input   60.00 | X-H torsion
[ 10117 3914 3913 3910 ] final   96.50 input   60.00 | X-H torsion
[ 6043   53   52   50 ] final  -25.98 input   60.00 | X-H torsion
[ 10611 4448 4447 4444 ] final  154.44 input   60.00 | X-H torsion
[ 10364 4172 4171 4168 ] final -167.56 input   60.00 | X-H torsion
[ 10142 3947 3946 3944 ] final -132.28 input   60.00 | X-H torsion

> <Gold.Protein.ActiveResidues>
 ILE33   TYR34   GLU87   ILE88   VAL90   ASN91   ALA92   ASP94   ASN95   ARG98  
 ILE118  ASN120  LYS123  GLY124  ILE125  ILE141  PHE142  THR147  SER148  SER149 
 ASN150  TYR151  GLY160  GLY161  ARG162  ASN163  GLY164  TYR165  GLY166  ALA167 
 LYS168  LEU169  THR181  THR215  ILE217  ILE317  GLN376  LYS378  MG904  

> <Gold.Protein.RotatedAtoms>
   68.1152   21.4980   31.2382 H   0  0  0  0  0  0  0  0  0  0  0  0  # atno 6043 bound_to 53  
   62.3428   14.8238   35.6099 H   0  0  0  0  0  0  0  0  0  0  0  0  # atno 10117 bound_to 3914
   60.5342   17.6439   29.6645 H   0  0  0  0  0  0  0  0  0  0  0  0  # atno 10122 bound_to 3921
   63.5114   19.7689   29.3220 H   0  0  0  0  0  0  0  0  0  0  0  0  # atno 10128 bound_to 3927
   55.9116   15.6904   34.2572 H   0  0  0  0  0  0  0  0  0  0  0  0  # atno 10142 bound_to 3947
   73.9383   18.3866   32.3010 H   0  0  0  0  0  0  0  0  0  0  0  0  # atno 10364 bound_to 4172
   73.5433   17.1819   29.2692 H   0  0  0  0  0  0  0  0  0  0  0  0  # atno 10611 bound_to 4448
   59.6357   18.9606   29.9917 LP  0  0  0  0  0  0  0  0  0  0  0  0  # atno 12016 bound_to 3921
   58.9216   17.5948   29.4521 LP  0  0  0  0  0  0  0  0  0  0  0  0  # atno 12017 bound_to 3921
   64.3313   21.0160   28.6734 LP  0  0  0  0  0  0  0  0  0  0  0  0  # atno 12018 bound_to 3927
   62.7612   20.7804   28.2913 LP  0  0  0  0  0  0  0  0  0  0  0  0  # atno 12019 bound_to 3927
   60.8727   14.1920   35.9056 LP  0  0  0  0  0  0  0  0  0  0  0  0  # atno 12024 bound_to 3914
   61.9236   14.4311   37.1324 LP  0  0  0  0  0  0  0  0  0  0  0  0  # atno 12025 bound_to 3914
   68.6326   22.9325   31.8061 LP  0  0  0  0  0  0  0  0  0  0  0  0  # atno 12032 bound_to 53  
   67.4606   22.8753   30.6704 LP  0  0  0  0  0  0  0  0  0  0  0  0  # atno 12033 bound_to 53  
   75.1255   17.4090   29.5742 LP  0  0  0  0  0  0  0  0  0  0  0  0  # atno 12042 bound_to 4448
   74.1448   16.8114   30.7351 LP  0  0  0  0  0  0  0  0  0  0  0  0  # atno 12043 bound_to 4448
   74.9408   17.5552   31.3253 LP  0  0  0  0  0  0  0  0  0  0  0  0  # atno 12050 bound_to 4172
   75.5274   18.7366   32.2880 LP  0  0  0  0  0  0  0  0  0  0  0  0  # atno 12051 bound_to 4172

$$$$
