#       Name:                GA Fitting Points
#       Creating user name   ancka
#       Creation time:       Sat Oct 07 15:25:12 2023


#       Fitting Points Used by GA Software.
#

@<TRIPOS>MOLECULE
GA Fitting Points
  9123    0    0
SMALL
NO_CHARGES


@<TRIPOS>ATOM
      1 ****        60.0000   8.0000  22.5000 Du        
      2 ****        60.0000   8.0000  22.7500 Du        
      3 ****        60.0000   8.0000  23.0000 Du        
      4 ****        60.0000   8.0000  23.2500 Du        
      5 ****        60.0000   8.0000  23.5000 Du        
      6 ****        60.0000   8.0000  23.7500 Du        
      7 ****        60.0000   8.2500  23.0000 Du        
      8 ****        60.0000   8.2500  23.2500 Du        
      9 ****        60.0000   8.2500  23.5000 Du        
     10 ****        60.0000  12.2500  27.5000 Du        
     11 ****        60.0000  12.2500  27.7500 Du        
     12 ****        60.0000  12.5000  27.7500 Du        
     13 ****        60.2500   8.0000  22.2500 Du        
     14 ****        60.2500   8.0000  22.5000 Du        
     15 ****        60.2500   8.0000  22.7500 Du        
     16 ****        60.2500   8.0000  23.0000 Du        
     17 ****        60.2500   8.0000  23.2500 Du        
     18 ****        60.2500   8.0000  23.5000 Du        
     19 ****        60.2500   8.0000  23.7500 Du        
     20 ****        60.2500   8.2500  22.2500 Du        
     21 ****        60.2500   8.2500  22.5000 Du        
     22 ****        60.2500   8.2500  22.7500 Du        
     23 ****        60.2500   8.2500  23.0000 Du        
     24 ****        60.2500   8.2500  23.2500 Du        
     25 ****        60.2500   8.2500  23.5000 Du        
     26 ****        60.2500  12.0000  27.5000 Du        
     27 ****        60.2500  12.0000  27.7500 Du        
     28 ****        60.2500  12.2500  27.5000 Du        
     29 ****        60.2500  12.2500  27.7500 Du        
     30 ****        60.2500  12.2500  28.0000 Du        
     31 ****        60.2500  12.5000  27.5000 Du        
     32 ****        60.2500  12.5000  27.7500 Du        
     33 ****        60.2500  12.5000  28.0000 Du        
     34 ****        60.2500  12.7500  27.5000 Du        
     35 ****        60.2500  12.7500  27.7500 Du        
     36 ****        60.2500  12.7500  28.0000 Du        
     37 ****        60.2500  13.0000  27.7500 Du        
     38 ****        60.2500  13.0000  28.0000 Du        
     39 ****        60.5000   8.0000  22.2500 Du        
     40 ****        60.5000   8.0000  22.5000 Du        
     41 ****        60.5000   8.0000  22.7500 Du        
     42 ****        60.5000   8.0000  23.0000 Du        
     43 ****        60.5000   8.0000  23.2500 Du        
     44 ****        60.5000   8.0000  23.5000 Du        
     45 ****        60.5000   8.2500  22.2500 Du        
     46 ****        60.5000   8.2500  22.5000 Du        
     47 ****        60.5000   8.2500  22.7500 Du        
     48 ****        60.5000   8.2500  23.0000 Du        
     49 ****        60.5000   8.2500  23.2500 Du        
     50 ****        60.5000   8.2500  23.5000 Du        
     51 ****        60.5000   8.5000  22.2500 Du        
     52 ****        60.5000   8.5000  22.5000 Du        
     53 ****        60.5000   8.5000  22.7500 Du        
     54 ****        60.5000   8.5000  23.0000 Du        
     55 ****        60.5000   8.5000  23.2500 Du        
     56 ****        60.5000  12.0000  27.2500 Du        
     57 ****        60.5000  12.0000  27.5000 Du        
     58 ****        60.5000  12.0000  27.7500 Du        
     59 ****        60.5000  12.2500  27.2500 Du        
     60 ****        60.5000  12.2500  27.5000 Du        
     61 ****        60.5000  12.2500  27.7500 Du        
     62 ****        60.5000  12.2500  28.0000 Du        
     63 ****        60.5000  12.5000  27.2500 Du        
     64 ****        60.5000  12.5000  27.5000 Du        
     65 ****        60.5000  12.5000  27.7500 Du        
     66 ****        60.5000  12.5000  28.0000 Du        
     67 ****        60.5000  12.5000  28.2500 Du        
     68 ****        60.5000  12.7500  27.5000 Du        
     69 ****        60.5000  12.7500  27.7500 Du        
     70 ****        60.5000  12.7500  28.0000 Du        
     71 ****        60.5000  12.7500  28.2500 Du        
     72 ****        60.5000  13.0000  27.5000 Du        
     73 ****        60.5000  13.0000  27.7500 Du        
     74 ****        60.5000  13.0000  28.0000 Du        
     75 ****        60.5000  13.0000  28.2500 Du        
     76 ****        60.5000  13.2500  27.7500 Du        
     77 ****        60.5000  13.2500  28.0000 Du        
     78 ****        60.5000  13.2500  28.2500 Du        
     79 ****        60.5000  13.5000  28.0000 Du        
     80 ****        60.7500   8.0000  22.2500 Du        
     81 ****        60.7500   8.0000  22.5000 Du        
     82 ****        60.7500   8.0000  22.7500 Du        
     83 ****        60.7500   8.0000  23.0000 Du        
     84 ****        60.7500   8.0000  23.2500 Du        
     85 ****        60.7500   8.0000  23.5000 Du        
     86 ****        60.7500   8.2500  22.2500 Du        
     87 ****        60.7500   8.2500  22.5000 Du        
     88 ****        60.7500   8.2500  22.7500 Du        
     89 ****        60.7500   8.2500  23.0000 Du        
     90 ****        60.7500   8.2500  23.2500 Du        
     91 ****        60.7500   8.2500  23.5000 Du        
     92 ****        60.7500   8.5000  22.0000 Du        
     93 ****        60.7500   8.5000  22.2500 Du        
     94 ****        60.7500   8.5000  22.5000 Du        
     95 ****        60.7500   8.5000  22.7500 Du        
     96 ****        60.7500   8.5000  23.0000 Du        
     97 ****        60.7500   8.5000  23.2500 Du        
     98 ****        60.7500   8.5000  23.5000 Du        
     99 ****        60.7500   8.7500  22.2500 Du        
    100 ****        60.7500   8.7500  22.5000 Du        
    101 ****        60.7500   8.7500  22.7500 Du        
    102 ****        60.7500   8.7500  23.0000 Du        
    103 ****        60.7500  11.7500  27.2500 Du        
    104 ****        60.7500  11.7500  27.5000 Du        
    105 ****        60.7500  12.0000  27.0000 Du        
    106 ****        60.7500  12.0000  27.2500 Du        
    107 ****        60.7500  12.0000  27.5000 Du        
    108 ****        60.7500  12.0000  27.7500 Du        
    109 ****        60.7500  12.2500  27.2500 Du        
    110 ****        60.7500  12.2500  27.5000 Du        
    111 ****        60.7500  12.2500  27.7500 Du        
    112 ****        60.7500  12.2500  28.0000 Du        
    113 ****        60.7500  12.5000  27.2500 Du        
    114 ****        60.7500  12.5000  27.5000 Du        
    115 ****        60.7500  12.5000  27.7500 Du        
    116 ****        60.7500  12.5000  28.0000 Du        
    117 ****        60.7500  12.5000  28.2500 Du        
    118 ****        60.7500  12.7500  27.2500 Du        
    119 ****        60.7500  12.7500  27.5000 Du        
    120 ****        60.7500  12.7500  27.7500 Du        
    121 ****        60.7500  12.7500  28.0000 Du        
    122 ****        60.7500  12.7500  28.2500 Du        
    123 ****        60.7500  12.7500  28.5000 Du        
    124 ****        60.7500  13.0000  27.5000 Du        
    125 ****        60.7500  13.0000  27.7500 Du        
    126 ****        60.7500  13.0000  28.0000 Du        
    127 ****        60.7500  13.0000  28.2500 Du        
    128 ****        60.7500  13.0000  28.5000 Du        
    129 ****        60.7500  13.0000  28.7500 Du        
    130 ****        60.7500  13.2500  27.5000 Du        
    131 ****        60.7500  13.2500  27.7500 Du        
    132 ****        60.7500  13.2500  28.0000 Du        
    133 ****        60.7500  13.2500  28.2500 Du        
    134 ****        60.7500  13.2500  28.5000 Du        
    135 ****        60.7500  13.5000  27.7500 Du        
    136 ****        60.7500  13.5000  28.0000 Du        
    137 ****        60.7500  13.5000  28.2500 Du        
    138 ****        60.7500  13.5000  28.5000 Du        
    139 ****        60.7500  13.7500  27.7500 Du        
    140 ****        60.7500  13.7500  28.0000 Du        
    141 ****        60.7500  13.7500  28.2500 Du        
    142 ****        60.7500  14.0000  28.0000 Du        
    143 ****        60.7500  14.0000  28.2500 Du        
    144 ****        60.7500  14.2500  28.0000 Du        
    145 ****        60.7500  14.2500  28.2500 Du        
    146 ****        60.7500  14.5000  28.2500 Du        
    147 ****        60.7500  14.7500  28.2500 Du        
    148 ****        60.7500  14.7500  28.5000 Du        
    149 ****        60.7500  15.0000  28.2500 Du        
    150 ****        61.0000   8.0000  22.2500 Du        
    151 ****        61.0000   8.0000  22.5000 Du        
    152 ****        61.0000   8.0000  22.7500 Du        
    153 ****        61.0000   8.0000  23.0000 Du        
    154 ****        61.0000   8.0000  23.2500 Du        
    155 ****        61.0000   8.0000  23.5000 Du        
    156 ****        61.0000   8.2500  22.2500 Du        
    157 ****        61.0000   8.2500  22.5000 Du        
    158 ****        61.0000   8.2500  22.7500 Du        
    159 ****        61.0000   8.2500  23.0000 Du        
    160 ****        61.0000   8.2500  23.2500 Du        
    161 ****        61.0000   8.2500  23.5000 Du        
    162 ****        61.0000   8.5000  22.0000 Du        
    163 ****        61.0000   8.5000  22.2500 Du        
    164 ****        61.0000   8.5000  22.5000 Du        
    165 ****        61.0000   8.5000  22.7500 Du        
    166 ****        61.0000   8.5000  23.0000 Du        
    167 ****        61.0000   8.5000  23.2500 Du        
    168 ****        61.0000   8.5000  23.5000 Du        
    169 ****        61.0000   8.7500  22.0000 Du        
    170 ****        61.0000   8.7500  22.2500 Du        
    171 ****        61.0000   8.7500  22.5000 Du        
    172 ****        61.0000   8.7500  22.7500 Du        
    173 ****        61.0000   8.7500  23.0000 Du        
    174 ****        61.0000   8.7500  23.2500 Du        
    175 ****        61.0000  11.7500  27.0000 Du        
    176 ****        61.0000  11.7500  27.2500 Du        
    177 ****        61.0000  11.7500  27.5000 Du        
    178 ****        61.0000  12.0000  27.0000 Du        
    179 ****        61.0000  12.0000  27.2500 Du        
    180 ****        61.0000  12.0000  27.5000 Du        
    181 ****        61.0000  12.0000  27.7500 Du        
    182 ****        61.0000  12.2500  27.0000 Du        
    183 ****        61.0000  12.2500  27.2500 Du        
    184 ****        61.0000  12.2500  27.5000 Du        
    185 ****        61.0000  12.2500  27.7500 Du        
    186 ****        61.0000  12.2500  28.0000 Du        
    187 ****        61.0000  12.2500  28.2500 Du        
    188 ****        61.0000  12.5000  27.2500 Du        
    189 ****        61.0000  12.5000  27.5000 Du        
    190 ****        61.0000  12.5000  27.7500 Du        
    191 ****        61.0000  12.5000  28.0000 Du        
    192 ****        61.0000  12.5000  28.2500 Du        
    193 ****        61.0000  12.5000  28.5000 Du        
    194 ****        61.0000  12.7500  27.2500 Du        
    195 ****        61.0000  12.7500  27.5000 Du        
    196 ****        61.0000  12.7500  27.7500 Du        
    197 ****        61.0000  12.7500  28.0000 Du        
    198 ****        61.0000  12.7500  28.2500 Du        
    199 ****        61.0000  12.7500  28.5000 Du        
    200 ****        61.0000  12.7500  28.7500 Du        
    201 ****        61.0000  12.7500  29.0000 Du        
    202 ****        61.0000  13.0000  27.5000 Du        
    203 ****        61.0000  13.0000  27.7500 Du        
    204 ****        61.0000  13.0000  28.0000 Du        
    205 ****        61.0000  13.0000  28.2500 Du        
    206 ****        61.0000  13.0000  28.5000 Du        
    207 ****        61.0000  13.0000  28.7500 Du        
    208 ****        61.0000  13.0000  29.0000 Du        
    209 ****        61.0000  13.2500  27.5000 Du        
    210 ****        61.0000  13.2500  27.7500 Du        
    211 ****        61.0000  13.2500  28.0000 Du        
    212 ****        61.0000  13.2500  28.2500 Du        
    213 ****        61.0000  13.2500  28.5000 Du        
    214 ****        61.0000  13.2500  28.7500 Du        
    215 ****        61.0000  13.2500  29.0000 Du        
    216 ****        61.0000  13.5000  27.5000 Du        
    217 ****        61.0000  13.5000  27.7500 Du        
    218 ****        61.0000  13.5000  28.0000 Du        
    219 ****        61.0000  13.5000  28.2500 Du        
    220 ****        61.0000  13.5000  28.5000 Du        
    221 ****        61.0000  13.5000  28.7500 Du        
    222 ****        61.0000  13.5000  29.0000 Du        
    223 ****        61.0000  13.7500  27.7500 Du        
    224 ****        61.0000  13.7500  28.0000 Du        
    225 ****        61.0000  13.7500  28.2500 Du        
    226 ****        61.0000  13.7500  28.5000 Du        
    227 ****        61.0000  13.7500  28.7500 Du        
    228 ****        61.0000  13.7500  29.0000 Du        
    229 ****        61.0000  14.0000  27.7500 Du        
    230 ****        61.0000  14.0000  28.0000 Du        
    231 ****        61.0000  14.0000  28.2500 Du        
    232 ****        61.0000  14.0000  28.5000 Du        
    233 ****        61.0000  14.0000  28.7500 Du        
    234 ****        61.0000  14.2500  27.7500 Du        
    235 ****        61.0000  14.2500  28.0000 Du        
    236 ****        61.0000  14.2500  28.2500 Du        
    237 ****        61.0000  14.2500  28.5000 Du        
    238 ****        61.0000  14.2500  28.7500 Du        
    239 ****        61.0000  14.5000  28.0000 Du        
    240 ****        61.0000  14.5000  28.2500 Du        
    241 ****        61.0000  14.5000  28.5000 Du        
    242 ****        61.0000  14.5000  28.7500 Du        
    243 ****        61.0000  14.7500  28.0000 Du        
    244 ****        61.0000  14.7500  28.2500 Du        
    245 ****        61.0000  14.7500  28.5000 Du        
    246 ****        61.0000  14.7500  28.7500 Du        
    247 ****        61.0000  15.0000  28.2500 Du        
    248 ****        61.0000  15.0000  28.5000 Du        
    249 ****        61.0000  15.0000  28.7500 Du        
    250 ****        61.2500   8.0000  22.2500 Du        
    251 ****        61.2500   8.0000  22.5000 Du        
    252 ****        61.2500   8.0000  22.7500 Du        
    253 ****        61.2500   8.0000  23.0000 Du        
    254 ****        61.2500   8.0000  23.2500 Du        
    255 ****        61.2500   8.0000  23.5000 Du        
    256 ****        61.2500   8.2500  22.2500 Du        
    257 ****        61.2500   8.2500  22.5000 Du        
    258 ****        61.2500   8.2500  22.7500 Du        
    259 ****        61.2500   8.2500  23.0000 Du        
    260 ****        61.2500   8.2500  23.2500 Du        
    261 ****        61.2500   8.2500  23.5000 Du        
    262 ****        61.2500   8.5000  22.0000 Du        
    263 ****        61.2500   8.5000  22.2500 Du        
    264 ****        61.2500   8.5000  22.5000 Du        
    265 ****        61.2500   8.5000  22.7500 Du        
    266 ****        61.2500   8.5000  23.0000 Du        
    267 ****        61.2500   8.5000  23.2500 Du        
    268 ****        61.2500   8.5000  23.5000 Du        
    269 ****        61.2500   8.7500  22.2500 Du        
    270 ****        61.2500   8.7500  22.5000 Du        
    271 ****        61.2500   8.7500  22.7500 Du        
    272 ****        61.2500   8.7500  23.0000 Du        
    273 ****        61.2500   8.7500  23.2500 Du        
    274 ****        61.2500   9.0000  22.2500 Du        
    275 ****        61.2500   9.0000  22.5000 Du        
    276 ****        61.2500   9.0000  22.7500 Du        
    277 ****        61.2500   9.0000  23.0000 Du        
    278 ****        61.2500  11.7500  27.0000 Du        
    279 ****        61.2500  11.7500  27.2500 Du        
    280 ****        61.2500  12.0000  27.0000 Du        
    281 ****        61.2500  12.0000  27.2500 Du        
    282 ****        61.2500  12.0000  27.5000 Du        
    283 ****        61.2500  12.0000  27.7500 Du        
    284 ****        61.2500  12.2500  27.2500 Du        
    285 ****        61.2500  12.2500  27.5000 Du        
    286 ****        61.2500  12.2500  27.7500 Du        
    287 ****        61.2500  12.2500  28.0000 Du        
    288 ****        61.2500  12.2500  28.2500 Du        
    289 ****        61.2500  12.5000  27.2500 Du        
    290 ****        61.2500  12.5000  27.5000 Du        
    291 ****        61.2500  12.5000  27.7500 Du        
    292 ****        61.2500  12.5000  28.0000 Du        
    293 ****        61.2500  12.5000  28.2500 Du        
    294 ****        61.2500  12.5000  28.5000 Du        
    295 ****        61.2500  12.5000  28.7500 Du        
    296 ****        61.2500  12.7500  27.2500 Du        
    297 ****        61.2500  12.7500  27.5000 Du        
    298 ****        61.2500  12.7500  27.7500 Du        
    299 ****        61.2500  12.7500  28.0000 Du        
    300 ****        61.2500  12.7500  28.2500 Du        
    301 ****        61.2500  12.7500  28.5000 Du        
    302 ****        61.2500  12.7500  28.7500 Du        
    303 ****        61.2500  12.7500  29.0000 Du        
    304 ****        61.2500  12.7500  29.2500 Du        
    305 ****        61.2500  13.0000  27.5000 Du        
    306 ****        61.2500  13.0000  27.7500 Du        
    307 ****        61.2500  13.0000  28.0000 Du        
    308 ****        61.2500  13.0000  28.2500 Du        
    309 ****        61.2500  13.0000  28.5000 Du        
    310 ****        61.2500  13.0000  28.7500 Du        
    311 ****        61.2500  13.0000  29.0000 Du        
    312 ****        61.2500  13.0000  29.2500 Du        
    313 ****        61.2500  13.0000  29.5000 Du        
    314 ****        61.2500  13.2500  27.5000 Du        
    315 ****        61.2500  13.2500  27.7500 Du        
    316 ****        61.2500  13.2500  28.0000 Du        
    317 ****        61.2500  13.2500  28.2500 Du        
    318 ****        61.2500  13.2500  28.5000 Du        
    319 ****        61.2500  13.2500  28.7500 Du        
    320 ****        61.2500  13.2500  29.0000 Du        
    321 ****        61.2500  13.2500  29.2500 Du        
    322 ****        61.2500  13.5000  27.5000 Du        
    323 ****        61.2500  13.5000  27.7500 Du        
    324 ****        61.2500  13.5000  28.0000 Du        
    325 ****        61.2500  13.5000  28.2500 Du        
    326 ****        61.2500  13.5000  28.5000 Du        
    327 ****        61.2500  13.5000  28.7500 Du        
    328 ****        61.2500  13.5000  29.0000 Du        
    329 ****        61.2500  13.5000  29.2500 Du        
    330 ****        61.2500  13.7500  27.7500 Du        
    331 ****        61.2500  13.7500  28.0000 Du        
    332 ****        61.2500  13.7500  28.2500 Du        
    333 ****        61.2500  13.7500  28.5000 Du        
    334 ****        61.2500  13.7500  28.7500 Du        
    335 ****        61.2500  13.7500  29.0000 Du        
    336 ****        61.2500  13.7500  29.2500 Du        
    337 ****        61.2500  14.0000  27.7500 Du        
    338 ****        61.2500  14.0000  28.0000 Du        
    339 ****        61.2500  14.0000  28.2500 Du        
    340 ****        61.2500  14.0000  28.5000 Du        
    341 ****        61.2500  14.0000  28.7500 Du        
    342 ****        61.2500  14.0000  29.0000 Du        
    343 ****        61.2500  14.0000  29.2500 Du        
    344 ****        61.2500  14.2500  27.7500 Du        
    345 ****        61.2500  14.2500  28.0000 Du        
    346 ****        61.2500  14.2500  28.2500 Du        
    347 ****        61.2500  14.2500  28.5000 Du        
    348 ****        61.2500  14.2500  28.7500 Du        
    349 ****        61.2500  14.2500  29.0000 Du        
    350 ****        61.2500  14.2500  29.2500 Du        
    351 ****        61.2500  14.5000  28.0000 Du        
    352 ****        61.2500  14.5000  28.2500 Du        
    353 ****        61.2500  14.5000  28.5000 Du        
    354 ****        61.2500  14.5000  28.7500 Du        
    355 ****        61.2500  14.5000  29.0000 Du        
    356 ****        61.2500  14.7500  28.0000 Du        
    357 ****        61.2500  14.7500  28.2500 Du        
    358 ****        61.2500  14.7500  28.5000 Du        
    359 ****        61.2500  14.7500  28.7500 Du        
    360 ****        61.2500  14.7500  29.0000 Du        
    361 ****        61.2500  15.0000  28.0000 Du        
    362 ****        61.2500  15.0000  28.2500 Du        
    363 ****        61.2500  15.0000  28.5000 Du        
    364 ****        61.2500  15.0000  28.7500 Du        
    365 ****        61.2500  15.0000  29.0000 Du        
    366 ****        61.2500  15.2500  28.7500 Du        
    367 ****        61.5000   8.0000  22.2500 Du        
    368 ****        61.5000   8.0000  22.5000 Du        
    369 ****        61.5000   8.0000  22.7500 Du        
    370 ****        61.5000   8.0000  23.0000 Du        
    371 ****        61.5000   8.0000  23.2500 Du        
    372 ****        61.5000   8.0000  23.5000 Du        
    373 ****        61.5000   8.2500  22.2500 Du        
    374 ****        61.5000   8.2500  22.5000 Du        
    375 ****        61.5000   8.2500  22.7500 Du        
    376 ****        61.5000   8.2500  23.0000 Du        
    377 ****        61.5000   8.2500  23.2500 Du        
    378 ****        61.5000   8.2500  23.5000 Du        
    379 ****        61.5000   8.5000  22.2500 Du        
    380 ****        61.5000   8.5000  22.5000 Du        
    381 ****        61.5000   8.5000  22.7500 Du        
    382 ****        61.5000   8.5000  23.0000 Du        
    383 ****        61.5000   8.5000  23.2500 Du        
    384 ****        61.5000   8.5000  23.5000 Du        
    385 ****        61.5000   8.7500  22.5000 Du        
    386 ****        61.5000   8.7500  22.7500 Du        
    387 ****        61.5000   8.7500  23.0000 Du        
    388 ****        61.5000   8.7500  23.2500 Du        
    389 ****        61.5000   9.0000  22.5000 Du        
    390 ****        61.5000   9.0000  22.7500 Du        
    391 ****        61.5000   9.0000  23.0000 Du        
    392 ****        61.5000   9.0000  23.2500 Du        
    393 ****        61.5000  12.5000  28.0000 Du        
    394 ****        61.5000  12.5000  28.2500 Du        
    395 ****        61.5000  12.5000  28.5000 Du        
    396 ****        61.5000  12.5000  28.7500 Du        
    397 ****        61.5000  12.5000  29.0000 Du        
    398 ****        61.5000  12.7500  27.7500 Du        
    399 ****        61.5000  12.7500  28.0000 Du        
    400 ****        61.5000  12.7500  28.2500 Du        
    401 ****        61.5000  12.7500  28.5000 Du        
    402 ****        61.5000  12.7500  28.7500 Du        
    403 ****        61.5000  12.7500  29.0000 Du        
    404 ****        61.5000  12.7500  29.2500 Du        
    405 ****        61.5000  12.7500  29.5000 Du        
    406 ****        61.5000  12.7500  29.7500 Du        
    407 ****        61.5000  13.0000  27.7500 Du        
    408 ****        61.5000  13.0000  28.0000 Du        
    409 ****        61.5000  13.0000  28.2500 Du        
    410 ****        61.5000  13.0000  28.5000 Du        
    411 ****        61.5000  13.0000  28.7500 Du        
    412 ****        61.5000  13.0000  29.0000 Du        
    413 ****        61.5000  13.0000  29.2500 Du        
    414 ****        61.5000  13.0000  29.5000 Du        
    415 ****        61.5000  13.0000  29.7500 Du        
    416 ****        61.5000  13.2500  27.5000 Du        
    417 ****        61.5000  13.2500  27.7500 Du        
    418 ****        61.5000  13.2500  28.0000 Du        
    419 ****        61.5000  13.2500  28.2500 Du        
    420 ****        61.5000  13.2500  28.5000 Du        
    421 ****        61.5000  13.2500  28.7500 Du        
    422 ****        61.5000  13.2500  29.0000 Du        
    423 ****        61.5000  13.2500  29.2500 Du        
    424 ****        61.5000  13.2500  29.5000 Du        
    425 ****        61.5000  13.2500  29.7500 Du        
    426 ****        61.5000  13.5000  27.5000 Du        
    427 ****        61.5000  13.5000  27.7500 Du        
    428 ****        61.5000  13.5000  28.0000 Du        
    429 ****        61.5000  13.5000  28.2500 Du        
    430 ****        61.5000  13.5000  28.5000 Du        
    431 ****        61.5000  13.5000  28.7500 Du        
    432 ****        61.5000  13.5000  29.0000 Du        
    433 ****        61.5000  13.5000  29.2500 Du        
    434 ****        61.5000  13.5000  29.5000 Du        
    435 ****        61.5000  13.7500  27.5000 Du        
    436 ****        61.5000  13.7500  27.7500 Du        
    437 ****        61.5000  13.7500  28.0000 Du        
    438 ****        61.5000  13.7500  28.2500 Du        
    439 ****        61.5000  13.7500  28.5000 Du        
    440 ****        61.5000  13.7500  28.7500 Du        
    441 ****        61.5000  13.7500  29.0000 Du        
    442 ****        61.5000  13.7500  29.2500 Du        
    443 ****        61.5000  13.7500  29.5000 Du        
    444 ****        61.5000  14.0000  27.7500 Du        
    445 ****        61.5000  14.0000  28.0000 Du        
    446 ****        61.5000  14.0000  28.2500 Du        
    447 ****        61.5000  14.0000  28.5000 Du        
    448 ****        61.5000  14.0000  28.7500 Du        
    449 ****        61.5000  14.0000  29.0000 Du        
    450 ****        61.5000  14.0000  29.2500 Du        
    451 ****        61.5000  14.0000  29.5000 Du        
    452 ****        61.5000  14.2500  27.7500 Du        
    453 ****        61.5000  14.2500  28.0000 Du        
    454 ****        61.5000  14.2500  28.2500 Du        
    455 ****        61.5000  14.2500  28.5000 Du        
    456 ****        61.5000  14.2500  28.7500 Du        
    457 ****        61.5000  14.2500  29.0000 Du        
    458 ****        61.5000  14.2500  29.2500 Du        
    459 ****        61.5000  14.5000  28.0000 Du        
    460 ****        61.5000  14.5000  28.2500 Du        
    461 ****        61.5000  14.5000  28.5000 Du        
    462 ****        61.5000  14.5000  28.7500 Du        
    463 ****        61.5000  14.5000  29.0000 Du        
    464 ****        61.5000  14.5000  29.2500 Du        
    465 ****        61.5000  14.7500  28.0000 Du        
    466 ****        61.5000  14.7500  28.2500 Du        
    467 ****        61.5000  14.7500  28.5000 Du        
    468 ****        61.5000  14.7500  28.7500 Du        
    469 ****        61.5000  14.7500  29.0000 Du        
    470 ****        61.5000  14.7500  29.2500 Du        
    471 ****        61.5000  15.0000  28.0000 Du        
    472 ****        61.5000  15.0000  28.2500 Du        
    473 ****        61.5000  15.0000  28.5000 Du        
    474 ****        61.5000  15.0000  28.7500 Du        
    475 ****        61.5000  15.0000  29.0000 Du        
    476 ****        61.5000  15.0000  29.2500 Du        
    477 ****        61.5000  15.2500  28.5000 Du        
    478 ****        61.5000  15.2500  28.7500 Du        
    479 ****        61.5000  15.2500  29.0000 Du        
    480 ****        61.7500   8.0000  22.5000 Du        
    481 ****        61.7500   8.0000  22.7500 Du        
    482 ****        61.7500   8.0000  23.0000 Du        
    483 ****        61.7500   8.0000  23.2500 Du        
    484 ****        61.7500   8.2500  22.5000 Du        
    485 ****        61.7500   8.2500  22.7500 Du        
    486 ****        61.7500   8.2500  23.0000 Du        
    487 ****        61.7500   8.2500  23.2500 Du        
    488 ****        61.7500   8.5000  22.5000 Du        
    489 ****        61.7500   8.5000  22.7500 Du        
    490 ****        61.7500   8.5000  23.0000 Du        
    491 ****        61.7500   8.5000  23.2500 Du        
    492 ****        61.7500   8.7500  22.7500 Du        
    493 ****        61.7500   8.7500  23.0000 Du        
    494 ****        61.7500   8.7500  23.2500 Du        
    495 ****        61.7500   9.0000  22.7500 Du        
    496 ****        61.7500   9.0000  23.0000 Du        
    497 ****        61.7500   9.0000  23.2500 Du        
    498 ****        61.7500  12.5000  28.2500 Du        
    499 ****        61.7500  12.5000  28.5000 Du        
    500 ****        61.7500  12.5000  28.7500 Du        
    501 ****        61.7500  12.5000  29.0000 Du        
    502 ****        61.7500  12.5000  29.2500 Du        
    503 ****        61.7500  12.7500  28.2500 Du        
    504 ****        61.7500  12.7500  28.5000 Du        
    505 ****        61.7500  12.7500  28.7500 Du        
    506 ****        61.7500  12.7500  29.0000 Du        
    507 ****        61.7500  12.7500  29.2500 Du        
    508 ****        61.7500  12.7500  29.5000 Du        
    509 ****        61.7500  12.7500  29.7500 Du        
    510 ****        61.7500  12.7500  30.0000 Du        
    511 ****        61.7500  13.0000  28.0000 Du        
    512 ****        61.7500  13.0000  28.2500 Du        
    513 ****        61.7500  13.0000  28.5000 Du        
    514 ****        61.7500  13.0000  28.7500 Du        
    515 ****        61.7500  13.0000  29.0000 Du        
    516 ****        61.7500  13.0000  29.2500 Du        
    517 ****        61.7500  13.0000  29.5000 Du        
    518 ****        61.7500  13.0000  29.7500 Du        
    519 ****        61.7500  13.0000  30.0000 Du        
    520 ****        61.7500  13.0000  30.2500 Du        
    521 ****        61.7500  13.2500  27.7500 Du        
    522 ****        61.7500  13.2500  28.0000 Du        
    523 ****        61.7500  13.2500  28.2500 Du        
    524 ****        61.7500  13.2500  28.5000 Du        
    525 ****        61.7500  13.2500  28.7500 Du        
    526 ****        61.7500  13.2500  29.0000 Du        
    527 ****        61.7500  13.2500  29.2500 Du        
    528 ****        61.7500  13.2500  29.5000 Du        
    529 ****        61.7500  13.2500  29.7500 Du        
    530 ****        61.7500  13.2500  30.0000 Du        
    531 ****        61.7500  13.5000  27.7500 Du        
    532 ****        61.7500  13.5000  28.0000 Du        
    533 ****        61.7500  13.5000  28.2500 Du        
    534 ****        61.7500  13.5000  28.5000 Du        
    535 ****        61.7500  13.5000  28.7500 Du        
    536 ****        61.7500  13.5000  29.0000 Du        
    537 ****        61.7500  13.5000  29.2500 Du        
    538 ****        61.7500  13.5000  29.5000 Du        
    539 ****        61.7500  13.5000  29.7500 Du        
    540 ****        61.7500  13.5000  30.0000 Du        
    541 ****        61.7500  13.7500  27.5000 Du        
    542 ****        61.7500  13.7500  27.7500 Du        
    543 ****        61.7500  13.7500  28.0000 Du        
    544 ****        61.7500  13.7500  28.2500 Du        
    545 ****        61.7500  13.7500  28.5000 Du        
    546 ****        61.7500  13.7500  28.7500 Du        
    547 ****        61.7500  13.7500  29.0000 Du        
    548 ****        61.7500  13.7500  29.2500 Du        
    549 ****        61.7500  13.7500  29.5000 Du        
    550 ****        61.7500  13.7500  29.7500 Du        
    551 ****        61.7500  13.7500  30.0000 Du        
    552 ****        61.7500  14.0000  27.7500 Du        
    553 ****        61.7500  14.0000  28.0000 Du        
    554 ****        61.7500  14.0000  28.2500 Du        
    555 ****        61.7500  14.0000  28.5000 Du        
    556 ****        61.7500  14.0000  28.7500 Du        
    557 ****        61.7500  14.0000  29.0000 Du        
    558 ****        61.7500  14.0000  29.2500 Du        
    559 ****        61.7500  14.0000  29.5000 Du        
    560 ****        61.7500  14.0000  29.7500 Du        
    561 ****        61.7500  14.2500  27.7500 Du        
    562 ****        61.7500  14.2500  28.0000 Du        
    563 ****        61.7500  14.2500  28.2500 Du        
    564 ****        61.7500  14.2500  28.5000 Du        
    565 ****        61.7500  14.2500  28.7500 Du        
    566 ****        61.7500  14.2500  29.0000 Du        
    567 ****        61.7500  14.2500  29.2500 Du        
    568 ****        61.7500  14.2500  29.5000 Du        
    569 ****        61.7500  14.2500  29.7500 Du        
    570 ****        61.7500  14.5000  27.7500 Du        
    571 ****        61.7500  14.5000  28.0000 Du        
    572 ****        61.7500  14.5000  28.2500 Du        
    573 ****        61.7500  14.5000  28.5000 Du        
    574 ****        61.7500  14.5000  28.7500 Du        
    575 ****        61.7500  14.5000  29.0000 Du        
    576 ****        61.7500  14.5000  29.2500 Du        
    577 ****        61.7500  14.5000  29.5000 Du        
    578 ****        61.7500  14.5000  29.7500 Du        
    579 ****        61.7500  14.7500  28.0000 Du        
    580 ****        61.7500  14.7500  28.2500 Du        
    581 ****        61.7500  14.7500  28.5000 Du        
    582 ****        61.7500  14.7500  28.7500 Du        
    583 ****        61.7500  14.7500  29.0000 Du        
    584 ****        61.7500  14.7500  29.2500 Du        
    585 ****        61.7500  14.7500  29.5000 Du        
    586 ****        61.7500  14.7500  29.7500 Du        
    587 ****        61.7500  15.0000  28.0000 Du        
    588 ****        61.7500  15.0000  28.2500 Du        
    589 ****        61.7500  15.0000  28.5000 Du        
    590 ****        61.7500  15.0000  28.7500 Du        
    591 ****        61.7500  15.0000  29.0000 Du        
    592 ****        61.7500  15.0000  29.2500 Du        
    593 ****        61.7500  15.0000  29.5000 Du        
    594 ****        61.7500  15.0000  29.7500 Du        
    595 ****        61.7500  15.2500  28.2500 Du        
    596 ****        61.7500  15.2500  28.5000 Du        
    597 ****        61.7500  15.2500  28.7500 Du        
    598 ****        61.7500  15.2500  29.0000 Du        
    599 ****        61.7500  15.2500  29.2500 Du        
    600 ****        61.7500  15.2500  29.5000 Du        
    601 ****        62.0000   8.0000  22.7500 Du        
    602 ****        62.0000   8.0000  23.0000 Du        
    603 ****        62.0000   8.0000  23.2500 Du        
    604 ****        62.0000   8.2500  22.7500 Du        
    605 ****        62.0000   8.2500  23.0000 Du        
    606 ****        62.0000   8.2500  23.2500 Du        
    607 ****        62.0000   8.5000  23.0000 Du        
    608 ****        62.0000   8.5000  23.2500 Du        
    609 ****        62.0000   8.7500  23.0000 Du        
    610 ****        62.0000   8.7500  23.2500 Du        
    611 ****        62.0000   9.0000  23.2500 Du        
    612 ****        62.0000  12.5000  28.5000 Du        
    613 ****        62.0000  12.5000  28.7500 Du        
    614 ****        62.0000  12.5000  29.0000 Du        
    615 ****        62.0000  12.5000  29.2500 Du        
    616 ****        62.0000  12.7500  28.5000 Du        
    617 ****        62.0000  12.7500  28.7500 Du        
    618 ****        62.0000  12.7500  29.0000 Du        
    619 ****        62.0000  12.7500  29.2500 Du        
    620 ****        62.0000  12.7500  29.5000 Du        
    621 ****        62.0000  12.7500  29.7500 Du        
    622 ****        62.0000  12.7500  30.0000 Du        
    623 ****        62.0000  13.0000  28.2500 Du        
    624 ****        62.0000  13.0000  28.5000 Du        
    625 ****        62.0000  13.0000  28.7500 Du        
    626 ****        62.0000  13.0000  29.0000 Du        
    627 ****        62.0000  13.0000  29.2500 Du        
    628 ****        62.0000  13.0000  29.5000 Du        
    629 ****        62.0000  13.0000  29.7500 Du        
    630 ****        62.0000  13.0000  30.0000 Du        
    631 ****        62.0000  13.0000  30.2500 Du        
    632 ****        62.0000  13.2500  28.2500 Du        
    633 ****        62.0000  13.2500  28.5000 Du        
    634 ****        62.0000  13.2500  28.7500 Du        
    635 ****        62.0000  13.2500  29.0000 Du        
    636 ****        62.0000  13.2500  29.2500 Du        
    637 ****        62.0000  13.2500  29.5000 Du        
    638 ****        62.0000  13.2500  29.7500 Du        
    639 ****        62.0000  13.2500  30.0000 Du        
    640 ****        62.0000  13.2500  30.2500 Du        
    641 ****        62.0000  13.5000  28.0000 Du        
    642 ****        62.0000  13.5000  28.2500 Du        
    643 ****        62.0000  13.5000  28.5000 Du        
    644 ****        62.0000  13.5000  28.7500 Du        
    645 ****        62.0000  13.5000  29.0000 Du        
    646 ****        62.0000  13.5000  29.2500 Du        
    647 ****        62.0000  13.5000  29.5000 Du        
    648 ****        62.0000  13.5000  29.7500 Du        
    649 ****        62.0000  13.5000  30.0000 Du        
    650 ****        62.0000  13.5000  30.2500 Du        
    651 ****        62.0000  13.7500  27.7500 Du        
    652 ****        62.0000  13.7500  28.0000 Du        
    653 ****        62.0000  13.7500  28.2500 Du        
    654 ****        62.0000  13.7500  28.5000 Du        
    655 ****        62.0000  13.7500  28.7500 Du        
    656 ****        62.0000  13.7500  29.0000 Du        
    657 ****        62.0000  13.7500  29.2500 Du        
    658 ****        62.0000  13.7500  29.5000 Du        
    659 ****        62.0000  13.7500  29.7500 Du        
    660 ****        62.0000  13.7500  30.0000 Du        
    661 ****        62.0000  13.7500  30.2500 Du        
    662 ****        62.0000  14.0000  27.5000 Du        
    663 ****        62.0000  14.0000  27.7500 Du        
    664 ****        62.0000  14.0000  28.0000 Du        
    665 ****        62.0000  14.0000  28.2500 Du        
    666 ****        62.0000  14.0000  28.5000 Du        
    667 ****        62.0000  14.0000  28.7500 Du        
    668 ****        62.0000  14.0000  29.0000 Du        
    669 ****        62.0000  14.0000  29.2500 Du        
    670 ****        62.0000  14.0000  29.5000 Du        
    671 ****        62.0000  14.0000  29.7500 Du        
    672 ****        62.0000  14.0000  30.0000 Du        
    673 ****        62.0000  14.0000  30.2500 Du        
    674 ****        62.0000  14.2500  27.7500 Du        
    675 ****        62.0000  14.2500  28.0000 Du        
    676 ****        62.0000  14.2500  28.2500 Du        
    677 ****        62.0000  14.2500  28.5000 Du        
    678 ****        62.0000  14.2500  28.7500 Du        
    679 ****        62.0000  14.2500  29.0000 Du        
    680 ****        62.0000  14.2500  29.2500 Du        
    681 ****        62.0000  14.2500  29.5000 Du        
    682 ****        62.0000  14.2500  29.7500 Du        
    683 ****        62.0000  14.2500  30.0000 Du        
    684 ****        62.0000  14.2500  30.2500 Du        
    685 ****        62.0000  14.5000  27.7500 Du        
    686 ****        62.0000  14.5000  28.0000 Du        
    687 ****        62.0000  14.5000  28.2500 Du        
    688 ****        62.0000  14.5000  28.5000 Du        
    689 ****        62.0000  14.5000  28.7500 Du        
    690 ****        62.0000  14.5000  29.0000 Du        
    691 ****        62.0000  14.5000  29.2500 Du        
    692 ****        62.0000  14.5000  29.5000 Du        
    693 ****        62.0000  14.5000  29.7500 Du        
    694 ****        62.0000  14.5000  30.0000 Du        
    695 ****        62.0000  14.7500  27.7500 Du        
    696 ****        62.0000  14.7500  28.0000 Du        
    697 ****        62.0000  14.7500  28.2500 Du        
    698 ****        62.0000  14.7500  28.5000 Du        
    699 ****        62.0000  14.7500  28.7500 Du        
    700 ****        62.0000  14.7500  29.0000 Du        
    701 ****        62.0000  14.7500  29.2500 Du        
    702 ****        62.0000  14.7500  29.5000 Du        
    703 ****        62.0000  14.7500  29.7500 Du        
    704 ****        62.0000  14.7500  30.0000 Du        
    705 ****        62.0000  15.0000  28.0000 Du        
    706 ****        62.0000  15.0000  28.2500 Du        
    707 ****        62.0000  15.0000  28.5000 Du        
    708 ****        62.0000  15.0000  28.7500 Du        
    709 ****        62.0000  15.0000  29.0000 Du        
    710 ****        62.0000  15.0000  29.2500 Du        
    711 ****        62.0000  15.0000  29.5000 Du        
    712 ****        62.0000  15.0000  29.7500 Du        
    713 ****        62.0000  15.0000  30.0000 Du        
    714 ****        62.0000  15.2500  28.2500 Du        
    715 ****        62.0000  15.2500  28.5000 Du        
    716 ****        62.0000  15.2500  28.7500 Du        
    717 ****        62.0000  15.2500  29.0000 Du        
    718 ****        62.0000  15.2500  29.2500 Du        
    719 ****        62.0000  15.2500  29.5000 Du        
    720 ****        62.0000  15.2500  29.7500 Du        
    721 ****        62.0000  15.2500  30.0000 Du        
    722 ****        62.0000  15.5000  28.7500 Du        
    723 ****        62.0000  15.5000  29.0000 Du        
    724 ****        62.0000  15.5000  29.2500 Du        
    725 ****        62.0000  23.2500  25.7500 Du        
    726 ****        62.0000  23.2500  26.0000 Du        
    727 ****        62.0000  23.2500  26.2500 Du        
    728 ****        62.0000  23.5000  25.7500 Du        
    729 ****        62.0000  23.5000  26.0000 Du        
    730 ****        62.0000  23.5000  26.2500 Du        
    731 ****        62.0000  23.7500  25.7500 Du        
    732 ****        62.0000  23.7500  26.0000 Du        
    733 ****        62.0000  23.7500  26.2500 Du        
    734 ****        62.0000  23.7500  26.5000 Du        
    735 ****        62.2500  11.0000  25.0000 Du        
    736 ****        62.2500  11.0000  25.2500 Du        
    737 ****        62.2500  11.2500  24.7500 Du        
    738 ****        62.2500  11.2500  25.0000 Du        
    739 ****        62.2500  11.2500  25.2500 Du        
    740 ****        62.2500  11.2500  25.5000 Du        
    741 ****        62.2500  11.2500  25.7500 Du        
    742 ****        62.2500  11.5000  24.7500 Du        
    743 ****        62.2500  11.5000  25.0000 Du        
    744 ****        62.2500  11.5000  25.2500 Du        
    745 ****        62.2500  11.5000  25.5000 Du        
    746 ****        62.2500  11.7500  24.7500 Du        
    747 ****        62.2500  11.7500  25.0000 Du        
    748 ****        62.2500  11.7500  25.2500 Du        
    749 ****        62.2500  11.7500  25.5000 Du        
    750 ****        62.2500  12.0000  25.0000 Du        
    751 ****        62.2500  12.0000  25.2500 Du        
    752 ****        62.2500  12.5000  28.7500 Du        
    753 ****        62.2500  12.5000  29.0000 Du        
    754 ****        62.2500  12.7500  28.7500 Du        
    755 ****        62.2500  12.7500  29.0000 Du        
    756 ****        62.2500  12.7500  29.2500 Du        
    757 ****        62.2500  12.7500  29.5000 Du        
    758 ****        62.2500  12.7500  29.7500 Du        
    759 ****        62.2500  12.7500  30.0000 Du        
    760 ****        62.2500  13.0000  28.5000 Du        
    761 ****        62.2500  13.0000  28.7500 Du        
    762 ****        62.2500  13.0000  29.0000 Du        
    763 ****        62.2500  13.0000  29.2500 Du        
    764 ****        62.2500  13.0000  29.5000 Du        
    765 ****        62.2500  13.0000  29.7500 Du        
    766 ****        62.2500  13.0000  30.0000 Du        
    767 ****        62.2500  13.0000  30.2500 Du        
    768 ****        62.2500  13.0000  30.5000 Du        
    769 ****        62.2500  13.2500  28.2500 Du        
    770 ****        62.2500  13.2500  28.5000 Du        
    771 ****        62.2500  13.2500  28.7500 Du        
    772 ****        62.2500  13.2500  29.0000 Du        
    773 ****        62.2500  13.2500  29.2500 Du        
    774 ****        62.2500  13.2500  29.5000 Du        
    775 ****        62.2500  13.2500  29.7500 Du        
    776 ****        62.2500  13.2500  30.0000 Du        
    777 ****        62.2500  13.2500  30.2500 Du        
    778 ****        62.2500  13.2500  30.5000 Du        
    779 ****        62.2500  13.5000  28.2500 Du        
    780 ****        62.2500  13.5000  28.5000 Du        
    781 ****        62.2500  13.5000  28.7500 Du        
    782 ****        62.2500  13.5000  29.0000 Du        
    783 ****        62.2500  13.5000  29.2500 Du        
    784 ****        62.2500  13.5000  29.5000 Du        
    785 ****        62.2500  13.5000  29.7500 Du        
    786 ****        62.2500  13.5000  30.0000 Du        
    787 ****        62.2500  13.5000  30.2500 Du        
    788 ****        62.2500  13.5000  30.5000 Du        
    789 ****        62.2500  13.7500  27.7500 Du        
    790 ****        62.2500  13.7500  28.0000 Du        
    791 ****        62.2500  13.7500  28.2500 Du        
    792 ****        62.2500  13.7500  28.5000 Du        
    793 ****        62.2500  13.7500  28.7500 Du        
    794 ****        62.2500  13.7500  29.0000 Du        
    795 ****        62.2500  13.7500  29.2500 Du        
    796 ****        62.2500  13.7500  29.5000 Du        
    797 ****        62.2500  13.7500  29.7500 Du        
    798 ****        62.2500  13.7500  30.0000 Du        
    799 ****        62.2500  13.7500  30.2500 Du        
    800 ****        62.2500  13.7500  30.5000 Du        
    801 ****        62.2500  14.0000  27.7500 Du        
    802 ****        62.2500  14.0000  28.0000 Du        
    803 ****        62.2500  14.0000  28.2500 Du        
    804 ****        62.2500  14.0000  28.5000 Du        
    805 ****        62.2500  14.0000  28.7500 Du        
    806 ****        62.2500  14.0000  29.0000 Du        
    807 ****        62.2500  14.0000  29.2500 Du        
    808 ****        62.2500  14.0000  29.5000 Du        
    809 ****        62.2500  14.0000  29.7500 Du        
    810 ****        62.2500  14.0000  30.0000 Du        
    811 ****        62.2500  14.0000  30.2500 Du        
    812 ****        62.2500  14.0000  30.5000 Du        
    813 ****        62.2500  14.0000  30.7500 Du        
    814 ****        62.2500  14.2500  27.7500 Du        
    815 ****        62.2500  14.2500  28.0000 Du        
    816 ****        62.2500  14.2500  28.2500 Du        
    817 ****        62.2500  14.2500  28.5000 Du        
    818 ****        62.2500  14.2500  28.7500 Du        
    819 ****        62.2500  14.2500  29.0000 Du        
    820 ****        62.2500  14.2500  29.2500 Du        
    821 ****        62.2500  14.2500  29.5000 Du        
    822 ****        62.2500  14.2500  29.7500 Du        
    823 ****        62.2500  14.2500  30.0000 Du        
    824 ****        62.2500  14.2500  30.2500 Du        
    825 ****        62.2500  14.2500  30.5000 Du        
    826 ****        62.2500  14.2500  30.7500 Du        
    827 ****        62.2500  14.5000  27.7500 Du        
    828 ****        62.2500  14.5000  28.0000 Du        
    829 ****        62.2500  14.5000  28.2500 Du        
    830 ****        62.2500  14.5000  28.5000 Du        
    831 ****        62.2500  14.5000  28.7500 Du        
    832 ****        62.2500  14.5000  29.0000 Du        
    833 ****        62.2500  14.5000  29.2500 Du        
    834 ****        62.2500  14.5000  29.5000 Du        
    835 ****        62.2500  14.5000  29.7500 Du        
    836 ****        62.2500  14.5000  30.0000 Du        
    837 ****        62.2500  14.5000  30.2500 Du        
    838 ****        62.2500  14.5000  30.5000 Du        
    839 ****        62.2500  14.5000  30.7500 Du        
    840 ****        62.2500  14.7500  27.7500 Du        
    841 ****        62.2500  14.7500  28.0000 Du        
    842 ****        62.2500  14.7500  28.2500 Du        
    843 ****        62.2500  14.7500  28.5000 Du        
    844 ****        62.2500  14.7500  28.7500 Du        
    845 ****        62.2500  14.7500  29.0000 Du        
    846 ****        62.2500  14.7500  29.2500 Du        
    847 ****        62.2500  14.7500  29.5000 Du        
    848 ****        62.2500  14.7500  29.7500 Du        
    849 ****        62.2500  14.7500  30.0000 Du        
    850 ****        62.2500  14.7500  30.2500 Du        
    851 ****        62.2500  14.7500  30.5000 Du        
    852 ****        62.2500  14.7500  30.7500 Du        
    853 ****        62.2500  15.0000  28.0000 Du        
    854 ****        62.2500  15.0000  28.2500 Du        
    855 ****        62.2500  15.0000  28.5000 Du        
    856 ****        62.2500  15.0000  28.7500 Du        
    857 ****        62.2500  15.0000  29.0000 Du        
    858 ****        62.2500  15.0000  29.2500 Du        
    859 ****        62.2500  15.0000  29.5000 Du        
    860 ****        62.2500  15.0000  29.7500 Du        
    861 ****        62.2500  15.0000  30.0000 Du        
    862 ****        62.2500  15.0000  30.2500 Du        
    863 ****        62.2500  15.0000  30.5000 Du        
    864 ****        62.2500  15.0000  30.7500 Du        
    865 ****        62.2500  15.2500  28.0000 Du        
    866 ****        62.2500  15.2500  28.2500 Du        
    867 ****        62.2500  15.2500  28.5000 Du        
    868 ****        62.2500  15.2500  28.7500 Du        
    869 ****        62.2500  15.2500  29.0000 Du        
    870 ****        62.2500  15.2500  29.2500 Du        
    871 ****        62.2500  15.2500  29.5000 Du        
    872 ****        62.2500  15.2500  29.7500 Du        
    873 ****        62.2500  15.2500  30.0000 Du        
    874 ****        62.2500  15.2500  30.2500 Du        
    875 ****        62.2500  15.2500  30.5000 Du        
    876 ****        62.2500  15.5000  28.5000 Du        
    877 ****        62.2500  15.5000  28.7500 Du        
    878 ****        62.2500  15.5000  29.0000 Du        
    879 ****        62.2500  15.5000  29.2500 Du        
    880 ****        62.2500  15.5000  29.5000 Du        
    881 ****        62.2500  15.5000  29.7500 Du        
    882 ****        62.2500  15.5000  30.0000 Du        
    883 ****        62.2500  15.7500  29.0000 Du        
    884 ****        62.2500  22.7500  25.7500 Du        
    885 ****        62.2500  23.0000  25.5000 Du        
    886 ****        62.2500  23.0000  25.7500 Du        
    887 ****        62.2500  23.0000  26.0000 Du        
    888 ****        62.2500  23.0000  26.2500 Du        
    889 ****        62.2500  23.2500  25.5000 Du        
    890 ****        62.2500  23.2500  25.7500 Du        
    891 ****        62.2500  23.2500  26.0000 Du        
    892 ****        62.2500  23.2500  26.2500 Du        
    893 ****        62.2500  23.5000  25.5000 Du        
    894 ****        62.2500  23.5000  25.7500 Du        
    895 ****        62.2500  23.5000  26.0000 Du        
    896 ****        62.2500  23.5000  26.2500 Du        
    897 ****        62.2500  23.7500  25.5000 Du        
    898 ****        62.2500  23.7500  25.7500 Du        
    899 ****        62.2500  23.7500  26.0000 Du        
    900 ****        62.2500  23.7500  26.2500 Du        
    901 ****        62.2500  23.7500  26.5000 Du        
    902 ****        62.5000  10.7500  24.7500 Du        
    903 ****        62.5000  11.0000  24.5000 Du        
    904 ****        62.5000  11.0000  24.7500 Du        
    905 ****        62.5000  11.0000  25.0000 Du        
    906 ****        62.5000  11.0000  25.2500 Du        
    907 ****        62.5000  11.0000  25.5000 Du        
    908 ****        62.5000  11.2500  24.5000 Du        
    909 ****        62.5000  11.2500  24.7500 Du        
    910 ****        62.5000  11.2500  25.0000 Du        
    911 ****        62.5000  11.2500  25.2500 Du        
    912 ****        62.5000  11.2500  25.5000 Du        
    913 ****        62.5000  11.5000  24.5000 Du        
    914 ****        62.5000  11.5000  24.7500 Du        
    915 ****        62.5000  11.5000  25.0000 Du        
    916 ****        62.5000  11.5000  25.2500 Du        
    917 ****        62.5000  11.5000  25.5000 Du        
    918 ****        62.5000  11.7500  24.5000 Du        
    919 ****        62.5000  11.7500  24.7500 Du        
    920 ****        62.5000  11.7500  25.0000 Du        
    921 ****        62.5000  11.7500  25.2500 Du        
    922 ****        62.5000  12.0000  24.5000 Du        
    923 ****        62.5000  12.0000  24.7500 Du        
    924 ****        62.5000  12.0000  25.0000 Du        
    925 ****        62.5000  12.0000  25.2500 Du        
    926 ****        62.5000  12.2500  24.7500 Du        
    927 ****        62.5000  12.2500  25.0000 Du        
    928 ****        62.5000  12.7500  28.7500 Du        
    929 ****        62.5000  12.7500  29.0000 Du        
    930 ****        62.5000  12.7500  29.2500 Du        
    931 ****        62.5000  12.7500  29.5000 Du        
    932 ****        62.5000  13.0000  28.7500 Du        
    933 ****        62.5000  13.0000  29.0000 Du        
    934 ****        62.5000  13.0000  29.2500 Du        
    935 ****        62.5000  13.0000  29.5000 Du        
    936 ****        62.5000  13.0000  29.7500 Du        
    937 ****        62.5000  13.0000  30.0000 Du        
    938 ****        62.5000  13.0000  30.2500 Du        
    939 ****        62.5000  13.2500  28.5000 Du        
    940 ****        62.5000  13.2500  28.7500 Du        
    941 ****        62.5000  13.2500  29.0000 Du        
    942 ****        62.5000  13.2500  29.2500 Du        
    943 ****        62.5000  13.2500  29.5000 Du        
    944 ****        62.5000  13.2500  29.7500 Du        
    945 ****        62.5000  13.2500  30.0000 Du        
    946 ****        62.5000  13.2500  30.2500 Du        
    947 ****        62.5000  13.2500  30.5000 Du        
    948 ****        62.5000  13.5000  28.5000 Du        
    949 ****        62.5000  13.5000  28.7500 Du        
    950 ****        62.5000  13.5000  29.0000 Du        
    951 ****        62.5000  13.5000  29.2500 Du        
    952 ****        62.5000  13.5000  29.5000 Du        
    953 ****        62.5000  13.5000  29.7500 Du        
    954 ****        62.5000  13.5000  30.0000 Du        
    955 ****        62.5000  13.5000  30.2500 Du        
    956 ****        62.5000  13.5000  30.5000 Du        
    957 ****        62.5000  13.7500  28.0000 Du        
    958 ****        62.5000  13.7500  28.2500 Du        
    959 ****        62.5000  13.7500  28.5000 Du        
    960 ****        62.5000  13.7500  28.7500 Du        
    961 ****        62.5000  13.7500  29.0000 Du        
    962 ****        62.5000  13.7500  29.2500 Du        
    963 ****        62.5000  13.7500  29.5000 Du        
    964 ****        62.5000  13.7500  29.7500 Du        
    965 ****        62.5000  13.7500  30.0000 Du        
    966 ****        62.5000  13.7500  30.2500 Du        
    967 ****        62.5000  13.7500  30.5000 Du        
    968 ****        62.5000  13.7500  30.7500 Du        
    969 ****        62.5000  14.0000  27.7500 Du        
    970 ****        62.5000  14.0000  28.0000 Du        
    971 ****        62.5000  14.0000  28.2500 Du        
    972 ****        62.5000  14.0000  28.5000 Du        
    973 ****        62.5000  14.0000  28.7500 Du        
    974 ****        62.5000  14.0000  29.0000 Du        
    975 ****        62.5000  14.0000  29.2500 Du        
    976 ****        62.5000  14.0000  29.5000 Du        
    977 ****        62.5000  14.0000  29.7500 Du        
    978 ****        62.5000  14.0000  30.0000 Du        
    979 ****        62.5000  14.0000  30.2500 Du        
    980 ****        62.5000  14.0000  30.5000 Du        
    981 ****        62.5000  14.0000  30.7500 Du        
    982 ****        62.5000  14.2500  27.7500 Du        
    983 ****        62.5000  14.2500  28.0000 Du        
    984 ****        62.5000  14.2500  28.2500 Du        
    985 ****        62.5000  14.2500  28.5000 Du        
    986 ****        62.5000  14.2500  28.7500 Du        
    987 ****        62.5000  14.2500  29.0000 Du        
    988 ****        62.5000  14.2500  29.2500 Du        
    989 ****        62.5000  14.2500  29.5000 Du        
    990 ****        62.5000  14.2500  29.7500 Du        
    991 ****        62.5000  14.2500  30.0000 Du        
    992 ****        62.5000  14.2500  30.2500 Du        
    993 ****        62.5000  14.2500  30.5000 Du        
    994 ****        62.5000  14.2500  30.7500 Du        
    995 ****        62.5000  14.2500  31.0000 Du        
    996 ****        62.5000  14.5000  27.7500 Du        
    997 ****        62.5000  14.5000  28.0000 Du        
    998 ****        62.5000  14.5000  28.2500 Du        
    999 ****        62.5000  14.5000  28.5000 Du        
   1000 ****        62.5000  14.5000  28.7500 Du        
   1001 ****        62.5000  14.5000  29.0000 Du        
   1002 ****        62.5000  14.5000  29.2500 Du        
   1003 ****        62.5000  14.5000  29.5000 Du        
   1004 ****        62.5000  14.5000  29.7500 Du        
   1005 ****        62.5000  14.5000  30.0000 Du        
   1006 ****        62.5000  14.5000  30.2500 Du        
   1007 ****        62.5000  14.5000  30.5000 Du        
   1008 ****        62.5000  14.5000  30.7500 Du        
   1009 ****        62.5000  14.5000  31.0000 Du        
   1010 ****        62.5000  14.7500  27.7500 Du        
   1011 ****        62.5000  14.7500  28.0000 Du        
   1012 ****        62.5000  14.7500  28.2500 Du        
   1013 ****        62.5000  14.7500  28.5000 Du        
   1014 ****        62.5000  14.7500  28.7500 Du        
   1015 ****        62.5000  14.7500  29.0000 Du        
   1016 ****        62.5000  14.7500  29.2500 Du        
   1017 ****        62.5000  14.7500  29.5000 Du        
   1018 ****        62.5000  14.7500  29.7500 Du        
   1019 ****        62.5000  14.7500  30.0000 Du        
   1020 ****        62.5000  14.7500  30.2500 Du        
   1021 ****        62.5000  14.7500  30.5000 Du        
   1022 ****        62.5000  14.7500  30.7500 Du        
   1023 ****        62.5000  14.7500  31.0000 Du        
   1024 ****        62.5000  15.0000  27.7500 Du        
   1025 ****        62.5000  15.0000  28.0000 Du        
   1026 ****        62.5000  15.0000  28.2500 Du        
   1027 ****        62.5000  15.0000  28.5000 Du        
   1028 ****        62.5000  15.0000  28.7500 Du        
   1029 ****        62.5000  15.0000  29.0000 Du        
   1030 ****        62.5000  15.0000  29.2500 Du        
   1031 ****        62.5000  15.0000  29.5000 Du        
   1032 ****        62.5000  15.0000  29.7500 Du        
   1033 ****        62.5000  15.0000  30.0000 Du        
   1034 ****        62.5000  15.0000  30.2500 Du        
   1035 ****        62.5000  15.0000  30.5000 Du        
   1036 ****        62.5000  15.0000  30.7500 Du        
   1037 ****        62.5000  15.0000  31.0000 Du        
   1038 ****        62.5000  15.2500  28.0000 Du        
   1039 ****        62.5000  15.2500  28.2500 Du        
   1040 ****        62.5000  15.2500  28.5000 Du        
   1041 ****        62.5000  15.2500  28.7500 Du        
   1042 ****        62.5000  15.2500  29.0000 Du        
   1043 ****        62.5000  15.2500  29.2500 Du        
   1044 ****        62.5000  15.2500  29.5000 Du        
   1045 ****        62.5000  15.2500  29.7500 Du        
   1046 ****        62.5000  15.2500  30.0000 Du        
   1047 ****        62.5000  15.2500  30.2500 Du        
   1048 ****        62.5000  15.2500  30.5000 Du        
   1049 ****        62.5000  15.2500  30.7500 Du        
   1050 ****        62.5000  15.2500  31.0000 Du        
   1051 ****        62.5000  15.5000  28.5000 Du        
   1052 ****        62.5000  15.5000  28.7500 Du        
   1053 ****        62.5000  15.5000  29.0000 Du        
   1054 ****        62.5000  15.5000  29.2500 Du        
   1055 ****        62.5000  15.5000  29.5000 Du        
   1056 ****        62.5000  15.5000  29.7500 Du        
   1057 ****        62.5000  15.5000  30.0000 Du        
   1058 ****        62.5000  15.5000  30.2500 Du        
   1059 ****        62.5000  15.5000  30.5000 Du        
   1060 ****        62.5000  15.7500  28.7500 Du        
   1061 ****        62.5000  15.7500  29.0000 Du        
   1062 ****        62.5000  15.7500  29.2500 Du        
   1063 ****        62.5000  15.7500  29.5000 Du        
   1064 ****        62.5000  15.7500  29.7500 Du        
   1065 ****        62.5000  15.7500  30.0000 Du        
   1066 ****        62.5000  22.7500  25.0000 Du        
   1067 ****        62.5000  22.7500  25.2500 Du        
   1068 ****        62.5000  22.7500  25.5000 Du        
   1069 ****        62.5000  22.7500  25.7500 Du        
   1070 ****        62.5000  22.7500  26.0000 Du        
   1071 ****        62.5000  23.0000  25.0000 Du        
   1072 ****        62.5000  23.0000  25.2500 Du        
   1073 ****        62.5000  23.0000  25.5000 Du        
   1074 ****        62.5000  23.0000  25.7500 Du        
   1075 ****        62.5000  23.0000  26.0000 Du        
   1076 ****        62.5000  23.0000  26.2500 Du        
   1077 ****        62.5000  23.2500  25.0000 Du        
   1078 ****        62.5000  23.2500  25.2500 Du        
   1079 ****        62.5000  23.2500  25.5000 Du        
   1080 ****        62.5000  23.2500  25.7500 Du        
   1081 ****        62.5000  23.2500  26.0000 Du        
   1082 ****        62.5000  23.2500  26.2500 Du        
   1083 ****        62.5000  23.5000  25.0000 Du        
   1084 ****        62.5000  23.5000  25.2500 Du        
   1085 ****        62.5000  23.5000  25.5000 Du        
   1086 ****        62.5000  23.5000  25.7500 Du        
   1087 ****        62.5000  23.5000  26.0000 Du        
   1088 ****        62.5000  23.5000  26.2500 Du        
   1089 ****        62.5000  23.7500  25.2500 Du        
   1090 ****        62.5000  23.7500  25.5000 Du        
   1091 ****        62.5000  23.7500  25.7500 Du        
   1092 ****        62.5000  23.7500  26.0000 Du        
   1093 ****        62.5000  23.7500  26.2500 Du        
   1094 ****        62.5000  23.7500  26.5000 Du        
   1095 ****        62.7500  10.7500  24.7500 Du        
   1096 ****        62.7500  10.7500  25.0000 Du        
   1097 ****        62.7500  10.7500  25.2500 Du        
   1098 ****        62.7500  11.0000  24.7500 Du        
   1099 ****        62.7500  11.0000  25.0000 Du        
   1100 ****        62.7500  11.0000  25.2500 Du        
   1101 ****        62.7500  11.0000  25.5000 Du        
   1102 ****        62.7500  11.2500  24.5000 Du        
   1103 ****        62.7500  11.2500  24.7500 Du        
   1104 ****        62.7500  11.2500  25.0000 Du        
   1105 ****        62.7500  11.2500  25.2500 Du        
   1106 ****        62.7500  11.2500  25.5000 Du        
   1107 ****        62.7500  11.5000  24.5000 Du        
   1108 ****        62.7500  11.5000  24.7500 Du        
   1109 ****        62.7500  11.5000  25.0000 Du        
   1110 ****        62.7500  11.5000  25.2500 Du        
   1111 ****        62.7500  11.5000  25.5000 Du        
   1112 ****        62.7500  11.7500  24.5000 Du        
   1113 ****        62.7500  11.7500  24.7500 Du        
   1114 ****        62.7500  11.7500  25.0000 Du        
   1115 ****        62.7500  11.7500  25.2500 Du        
   1116 ****        62.7500  12.0000  24.5000 Du        
   1117 ****        62.7500  12.0000  24.7500 Du        
   1118 ****        62.7500  12.0000  25.0000 Du        
   1119 ****        62.7500  12.0000  25.2500 Du        
   1120 ****        62.7500  12.2500  24.7500 Du        
   1121 ****        62.7500  12.2500  25.0000 Du        
   1122 ****        62.7500  12.7500  29.0000 Du        
   1123 ****        62.7500  13.0000  28.7500 Du        
   1124 ****        62.7500  13.0000  29.0000 Du        
   1125 ****        62.7500  13.0000  29.2500 Du        
   1126 ****        62.7500  13.0000  29.5000 Du        
   1127 ****        62.7500  13.0000  29.7500 Du        
   1128 ****        62.7500  13.0000  30.0000 Du        
   1129 ****        62.7500  13.0000  30.2500 Du        
   1130 ****        62.7500  13.2500  28.7500 Du        
   1131 ****        62.7500  13.2500  29.0000 Du        
   1132 ****        62.7500  13.2500  29.2500 Du        
   1133 ****        62.7500  13.2500  29.5000 Du        
   1134 ****        62.7500  13.2500  29.7500 Du        
   1135 ****        62.7500  13.2500  30.0000 Du        
   1136 ****        62.7500  13.2500  30.2500 Du        
   1137 ****        62.7500  13.2500  30.5000 Du        
   1138 ****        62.7500  13.5000  28.5000 Du        
   1139 ****        62.7500  13.5000  28.7500 Du        
   1140 ****        62.7500  13.5000  29.0000 Du        
   1141 ****        62.7500  13.5000  29.2500 Du        
   1142 ****        62.7500  13.5000  29.5000 Du        
   1143 ****        62.7500  13.5000  29.7500 Du        
   1144 ****        62.7500  13.5000  30.0000 Du        
   1145 ****        62.7500  13.5000  30.2500 Du        
   1146 ****        62.7500  13.5000  30.5000 Du        
   1147 ****        62.7500  13.5000  30.7500 Du        
   1148 ****        62.7500  13.7500  28.2500 Du        
   1149 ****        62.7500  13.7500  28.5000 Du        
   1150 ****        62.7500  13.7500  28.7500 Du        
   1151 ****        62.7500  13.7500  29.0000 Du        
   1152 ****        62.7500  13.7500  29.2500 Du        
   1153 ****        62.7500  13.7500  29.5000 Du        
   1154 ****        62.7500  13.7500  29.7500 Du        
   1155 ****        62.7500  13.7500  30.0000 Du        
   1156 ****        62.7500  13.7500  30.2500 Du        
   1157 ****        62.7500  13.7500  30.5000 Du        
   1158 ****        62.7500  13.7500  30.7500 Du        
   1159 ****        62.7500  14.0000  28.0000 Du        
   1160 ****        62.7500  14.0000  28.2500 Du        
   1161 ****        62.7500  14.0000  28.5000 Du        
   1162 ****        62.7500  14.0000  28.7500 Du        
   1163 ****        62.7500  14.0000  29.0000 Du        
   1164 ****        62.7500  14.0000  29.2500 Du        
   1165 ****        62.7500  14.0000  29.5000 Du        
   1166 ****        62.7500  14.0000  29.7500 Du        
   1167 ****        62.7500  14.0000  30.0000 Du        
   1168 ****        62.7500  14.0000  30.2500 Du        
   1169 ****        62.7500  14.0000  30.5000 Du        
   1170 ****        62.7500  14.0000  30.7500 Du        
   1171 ****        62.7500  14.0000  31.0000 Du        
   1172 ****        62.7500  14.2500  27.7500 Du        
   1173 ****        62.7500  14.2500  28.0000 Du        
   1174 ****        62.7500  14.2500  28.2500 Du        
   1175 ****        62.7500  14.2500  28.5000 Du        
   1176 ****        62.7500  14.2500  28.7500 Du        
   1177 ****        62.7500  14.2500  29.0000 Du        
   1178 ****        62.7500  14.2500  29.2500 Du        
   1179 ****        62.7500  14.2500  29.5000 Du        
   1180 ****        62.7500  14.2500  29.7500 Du        
   1181 ****        62.7500  14.2500  30.0000 Du        
   1182 ****        62.7500  14.2500  30.2500 Du        
   1183 ****        62.7500  14.2500  30.5000 Du        
   1184 ****        62.7500  14.2500  30.7500 Du        
   1185 ****        62.7500  14.2500  31.0000 Du        
   1186 ****        62.7500  14.5000  27.7500 Du        
   1187 ****        62.7500  14.5000  28.0000 Du        
   1188 ****        62.7500  14.5000  28.2500 Du        
   1189 ****        62.7500  14.5000  28.5000 Du        
   1190 ****        62.7500  14.5000  28.7500 Du        
   1191 ****        62.7500  14.5000  29.0000 Du        
   1192 ****        62.7500  14.5000  29.2500 Du        
   1193 ****        62.7500  14.5000  29.5000 Du        
   1194 ****        62.7500  14.5000  29.7500 Du        
   1195 ****        62.7500  14.5000  30.0000 Du        
   1196 ****        62.7500  14.5000  30.2500 Du        
   1197 ****        62.7500  14.5000  30.5000 Du        
   1198 ****        62.7500  14.5000  30.7500 Du        
   1199 ****        62.7500  14.5000  31.0000 Du        
   1200 ****        62.7500  14.5000  31.2500 Du        
   1201 ****        62.7500  14.7500  27.7500 Du        
   1202 ****        62.7500  14.7500  28.0000 Du        
   1203 ****        62.7500  14.7500  28.2500 Du        
   1204 ****        62.7500  14.7500  28.5000 Du        
   1205 ****        62.7500  14.7500  28.7500 Du        
   1206 ****        62.7500  14.7500  29.0000 Du        
   1207 ****        62.7500  14.7500  29.2500 Du        
   1208 ****        62.7500  14.7500  29.5000 Du        
   1209 ****        62.7500  14.7500  29.7500 Du        
   1210 ****        62.7500  14.7500  30.0000 Du        
   1211 ****        62.7500  14.7500  30.2500 Du        
   1212 ****        62.7500  14.7500  30.5000 Du        
   1213 ****        62.7500  14.7500  30.7500 Du        
   1214 ****        62.7500  14.7500  31.0000 Du        
   1215 ****        62.7500  14.7500  31.2500 Du        
   1216 ****        62.7500  15.0000  27.7500 Du        
   1217 ****        62.7500  15.0000  28.0000 Du        
   1218 ****        62.7500  15.0000  28.2500 Du        
   1219 ****        62.7500  15.0000  28.5000 Du        
   1220 ****        62.7500  15.0000  28.7500 Du        
   1221 ****        62.7500  15.0000  29.0000 Du        
   1222 ****        62.7500  15.0000  29.2500 Du        
   1223 ****        62.7500  15.0000  29.5000 Du        
   1224 ****        62.7500  15.0000  29.7500 Du        
   1225 ****        62.7500  15.0000  30.0000 Du        
   1226 ****        62.7500  15.0000  30.2500 Du        
   1227 ****        62.7500  15.0000  30.5000 Du        
   1228 ****        62.7500  15.0000  30.7500 Du        
   1229 ****        62.7500  15.0000  31.0000 Du        
   1230 ****        62.7500  15.0000  31.2500 Du        
   1231 ****        62.7500  15.2500  28.0000 Du        
   1232 ****        62.7500  15.2500  28.2500 Du        
   1233 ****        62.7500  15.2500  28.5000 Du        
   1234 ****        62.7500  15.2500  28.7500 Du        
   1235 ****        62.7500  15.2500  29.0000 Du        
   1236 ****        62.7500  15.2500  29.2500 Du        
   1237 ****        62.7500  15.2500  29.5000 Du        
   1238 ****        62.7500  15.2500  29.7500 Du        
   1239 ****        62.7500  15.2500  30.0000 Du        
   1240 ****        62.7500  15.2500  30.2500 Du        
   1241 ****        62.7500  15.2500  30.5000 Du        
   1242 ****        62.7500  15.2500  30.7500 Du        
   1243 ****        62.7500  15.2500  31.0000 Du        
   1244 ****        62.7500  15.2500  31.2500 Du        
   1245 ****        62.7500  15.5000  28.0000 Du        
   1246 ****        62.7500  15.5000  28.2500 Du        
   1247 ****        62.7500  15.5000  28.5000 Du        
   1248 ****        62.7500  15.5000  28.7500 Du        
   1249 ****        62.7500  15.5000  29.0000 Du        
   1250 ****        62.7500  15.5000  29.2500 Du        
   1251 ****        62.7500  15.5000  29.5000 Du        
   1252 ****        62.7500  15.5000  29.7500 Du        
   1253 ****        62.7500  15.5000  30.0000 Du        
   1254 ****        62.7500  15.5000  30.2500 Du        
   1255 ****        62.7500  15.5000  30.5000 Du        
   1256 ****        62.7500  15.5000  30.7500 Du        
   1257 ****        62.7500  15.5000  31.0000 Du        
   1258 ****        62.7500  15.7500  28.2500 Du        
   1259 ****        62.7500  15.7500  28.5000 Du        
   1260 ****        62.7500  15.7500  28.7500 Du        
   1261 ****        62.7500  15.7500  29.0000 Du        
   1262 ****        62.7500  15.7500  29.2500 Du        
   1263 ****        62.7500  15.7500  29.5000 Du        
   1264 ****        62.7500  15.7500  29.7500 Du        
   1265 ****        62.7500  15.7500  30.0000 Du        
   1266 ****        62.7500  15.7500  30.2500 Du        
   1267 ****        62.7500  15.7500  30.5000 Du        
   1268 ****        62.7500  16.0000  28.7500 Du        
   1269 ****        62.7500  16.0000  29.0000 Du        
   1270 ****        62.7500  16.0000  29.2500 Du        
   1271 ****        62.7500  16.0000  29.5000 Du        
   1272 ****        62.7500  16.0000  29.7500 Du        
   1273 ****        62.7500  16.0000  30.0000 Du        
   1274 ****        62.7500  22.2500  25.0000 Du        
   1275 ****        62.7500  22.2500  25.2500 Du        
   1276 ****        62.7500  22.2500  25.5000 Du        
   1277 ****        62.7500  22.5000  24.5000 Du        
   1278 ****        62.7500  22.5000  24.7500 Du        
   1279 ****        62.7500  22.5000  25.0000 Du        
   1280 ****        62.7500  22.5000  25.2500 Du        
   1281 ****        62.7500  22.5000  25.5000 Du        
   1282 ****        62.7500  22.5000  25.7500 Du        
   1283 ****        62.7500  22.5000  26.0000 Du        
   1284 ****        62.7500  22.7500  24.2500 Du        
   1285 ****        62.7500  22.7500  24.5000 Du        
   1286 ****        62.7500  22.7500  24.7500 Du        
   1287 ****        62.7500  22.7500  25.0000 Du        
   1288 ****        62.7500  22.7500  25.2500 Du        
   1289 ****        62.7500  22.7500  25.5000 Du        
   1290 ****        62.7500  22.7500  25.7500 Du        
   1291 ****        62.7500  22.7500  26.0000 Du        
   1292 ****        62.7500  22.7500  26.2500 Du        
   1293 ****        62.7500  23.0000  24.5000 Du        
   1294 ****        62.7500  23.0000  24.7500 Du        
   1295 ****        62.7500  23.0000  25.0000 Du        
   1296 ****        62.7500  23.0000  25.2500 Du        
   1297 ****        62.7500  23.0000  25.5000 Du        
   1298 ****        62.7500  23.0000  25.7500 Du        
   1299 ****        62.7500  23.0000  26.0000 Du        
   1300 ****        62.7500  23.0000  26.2500 Du        
   1301 ****        62.7500  23.2500  24.7500 Du        
   1302 ****        62.7500  23.2500  25.0000 Du        
   1303 ****        62.7500  23.2500  25.2500 Du        
   1304 ****        62.7500  23.2500  25.5000 Du        
   1305 ****        62.7500  23.2500  25.7500 Du        
   1306 ****        62.7500  23.2500  26.0000 Du        
   1307 ****        62.7500  23.2500  26.2500 Du        
   1308 ****        62.7500  23.2500  26.5000 Du        
   1309 ****        62.7500  23.5000  24.7500 Du        
   1310 ****        62.7500  23.5000  25.0000 Du        
   1311 ****        62.7500  23.5000  25.2500 Du        
   1312 ****        62.7500  23.5000  25.5000 Du        
   1313 ****        62.7500  23.5000  25.7500 Du        
   1314 ****        62.7500  23.5000  26.0000 Du        
   1315 ****        62.7500  23.5000  26.2500 Du        
   1316 ****        62.7500  23.5000  26.5000 Du        
   1317 ****        62.7500  23.7500  25.0000 Du        
   1318 ****        62.7500  23.7500  25.2500 Du        
   1319 ****        62.7500  23.7500  25.5000 Du        
   1320 ****        62.7500  23.7500  25.7500 Du        
   1321 ****        62.7500  23.7500  26.0000 Du        
   1322 ****        62.7500  23.7500  26.2500 Du        
   1323 ****        62.7500  23.7500  26.5000 Du        
   1324 ****        62.7500  23.7500  26.7500 Du        
   1325 ****        63.0000  10.7500  25.0000 Du        
   1326 ****        63.0000  10.7500  25.2500 Du        
   1327 ****        63.0000  11.0000  24.7500 Du        
   1328 ****        63.0000  11.0000  25.0000 Du        
   1329 ****        63.0000  11.0000  25.2500 Du        
   1330 ****        63.0000  11.0000  25.5000 Du        
   1331 ****        63.0000  11.2500  24.7500 Du        
   1332 ****        63.0000  11.2500  25.0000 Du        
   1333 ****        63.0000  11.2500  25.2500 Du        
   1334 ****        63.0000  11.2500  25.5000 Du        
   1335 ****        63.0000  11.5000  24.7500 Du        
   1336 ****        63.0000  11.5000  25.0000 Du        
   1337 ****        63.0000  11.5000  25.2500 Du        
   1338 ****        63.0000  11.7500  24.7500 Du        
   1339 ****        63.0000  11.7500  25.0000 Du        
   1340 ****        63.0000  12.0000  24.7500 Du        
   1341 ****        63.0000  12.0000  25.0000 Du        
   1342 ****        63.0000  12.2500  24.7500 Du        
   1343 ****        63.0000  13.0000  29.2500 Du        
   1344 ****        63.0000  13.0000  29.5000 Du        
   1345 ****        63.0000  13.0000  29.7500 Du        
   1346 ****        63.0000  13.0000  30.0000 Du        
   1347 ****        63.0000  13.2500  29.0000 Du        
   1348 ****        63.0000  13.2500  29.2500 Du        
   1349 ****        63.0000  13.2500  29.5000 Du        
   1350 ****        63.0000  13.2500  29.7500 Du        
   1351 ****        63.0000  13.2500  30.0000 Du        
   1352 ****        63.0000  13.2500  30.2500 Du        
   1353 ****        63.0000  13.2500  30.5000 Du        
   1354 ****        63.0000  13.5000  28.7500 Du        
   1355 ****        63.0000  13.5000  29.0000 Du        
   1356 ****        63.0000  13.5000  29.2500 Du        
   1357 ****        63.0000  13.5000  29.5000 Du        
   1358 ****        63.0000  13.5000  29.7500 Du        
   1359 ****        63.0000  13.5000  30.0000 Du        
   1360 ****        63.0000  13.5000  30.2500 Du        
   1361 ****        63.0000  13.5000  30.5000 Du        
   1362 ****        63.0000  13.5000  30.7500 Du        
   1363 ****        63.0000  13.7500  28.7500 Du        
   1364 ****        63.0000  13.7500  29.0000 Du        
   1365 ****        63.0000  13.7500  29.2500 Du        
   1366 ****        63.0000  13.7500  29.5000 Du        
   1367 ****        63.0000  13.7500  29.7500 Du        
   1368 ****        63.0000  13.7500  30.0000 Du        
   1369 ****        63.0000  13.7500  30.2500 Du        
   1370 ****        63.0000  13.7500  30.5000 Du        
   1371 ****        63.0000  13.7500  30.7500 Du        
   1372 ****        63.0000  13.7500  31.0000 Du        
   1373 ****        63.0000  14.0000  28.5000 Du        
   1374 ****        63.0000  14.0000  28.7500 Du        
   1375 ****        63.0000  14.0000  29.0000 Du        
   1376 ****        63.0000  14.0000  29.2500 Du        
   1377 ****        63.0000  14.0000  29.5000 Du        
   1378 ****        63.0000  14.0000  29.7500 Du        
   1379 ****        63.0000  14.0000  30.0000 Du        
   1380 ****        63.0000  14.0000  30.2500 Du        
   1381 ****        63.0000  14.0000  30.5000 Du        
   1382 ****        63.0000  14.0000  30.7500 Du        
   1383 ****        63.0000  14.0000  31.0000 Du        
   1384 ****        63.0000  14.2500  28.0000 Du        
   1385 ****        63.0000  14.2500  28.2500 Du        
   1386 ****        63.0000  14.2500  28.5000 Du        
   1387 ****        63.0000  14.2500  28.7500 Du        
   1388 ****        63.0000  14.2500  29.0000 Du        
   1389 ****        63.0000  14.2500  29.2500 Du        
   1390 ****        63.0000  14.2500  29.5000 Du        
   1391 ****        63.0000  14.2500  29.7500 Du        
   1392 ****        63.0000  14.2500  30.0000 Du        
   1393 ****        63.0000  14.2500  30.2500 Du        
   1394 ****        63.0000  14.2500  30.5000 Du        
   1395 ****        63.0000  14.2500  30.7500 Du        
   1396 ****        63.0000  14.2500  31.0000 Du        
   1397 ****        63.0000  14.2500  31.2500 Du        
   1398 ****        63.0000  14.5000  28.0000 Du        
   1399 ****        63.0000  14.5000  28.2500 Du        
   1400 ****        63.0000  14.5000  28.5000 Du        
   1401 ****        63.0000  14.5000  28.7500 Du        
   1402 ****        63.0000  14.5000  29.0000 Du        
   1403 ****        63.0000  14.5000  29.2500 Du        
   1404 ****        63.0000  14.5000  29.5000 Du        
   1405 ****        63.0000  14.5000  29.7500 Du        
   1406 ****        63.0000  14.5000  30.0000 Du        
   1407 ****        63.0000  14.5000  30.2500 Du        
   1408 ****        63.0000  14.5000  30.5000 Du        
   1409 ****        63.0000  14.5000  30.7500 Du        
   1410 ****        63.0000  14.5000  31.0000 Du        
   1411 ****        63.0000  14.5000  31.2500 Du        
   1412 ****        63.0000  14.7500  27.7500 Du        
   1413 ****        63.0000  14.7500  28.0000 Du        
   1414 ****        63.0000  14.7500  28.2500 Du        
   1415 ****        63.0000  14.7500  28.5000 Du        
   1416 ****        63.0000  14.7500  28.7500 Du        
   1417 ****        63.0000  14.7500  29.0000 Du        
   1418 ****        63.0000  14.7500  29.2500 Du        
   1419 ****        63.0000  14.7500  29.5000 Du        
   1420 ****        63.0000  14.7500  29.7500 Du        
   1421 ****        63.0000  14.7500  30.0000 Du        
   1422 ****        63.0000  14.7500  30.2500 Du        
   1423 ****        63.0000  14.7500  30.5000 Du        
   1424 ****        63.0000  14.7500  30.7500 Du        
   1425 ****        63.0000  14.7500  31.0000 Du        
   1426 ****        63.0000  14.7500  31.2500 Du        
   1427 ****        63.0000  14.7500  31.5000 Du        
   1428 ****        63.0000  15.0000  27.7500 Du        
   1429 ****        63.0000  15.0000  28.0000 Du        
   1430 ****        63.0000  15.0000  28.2500 Du        
   1431 ****        63.0000  15.0000  28.5000 Du        
   1432 ****        63.0000  15.0000  28.7500 Du        
   1433 ****        63.0000  15.0000  29.0000 Du        
   1434 ****        63.0000  15.0000  29.2500 Du        
   1435 ****        63.0000  15.0000  29.5000 Du        
   1436 ****        63.0000  15.0000  29.7500 Du        
   1437 ****        63.0000  15.0000  30.0000 Du        
   1438 ****        63.0000  15.0000  30.2500 Du        
   1439 ****        63.0000  15.0000  30.5000 Du        
   1440 ****        63.0000  15.0000  30.7500 Du        
   1441 ****        63.0000  15.0000  31.0000 Du        
   1442 ****        63.0000  15.0000  31.2500 Du        
   1443 ****        63.0000  15.0000  31.5000 Du        
   1444 ****        63.0000  15.2500  27.7500 Du        
   1445 ****        63.0000  15.2500  28.0000 Du        
   1446 ****        63.0000  15.2500  28.2500 Du        
   1447 ****        63.0000  15.2500  28.5000 Du        
   1448 ****        63.0000  15.2500  28.7500 Du        
   1449 ****        63.0000  15.2500  29.0000 Du        
   1450 ****        63.0000  15.2500  29.2500 Du        
   1451 ****        63.0000  15.2500  29.5000 Du        
   1452 ****        63.0000  15.2500  29.7500 Du        
   1453 ****        63.0000  15.2500  30.0000 Du        
   1454 ****        63.0000  15.2500  30.2500 Du        
   1455 ****        63.0000  15.2500  30.5000 Du        
   1456 ****        63.0000  15.2500  30.7500 Du        
   1457 ****        63.0000  15.2500  31.0000 Du        
   1458 ****        63.0000  15.2500  31.2500 Du        
   1459 ****        63.0000  15.2500  31.5000 Du        
   1460 ****        63.0000  15.5000  27.7500 Du        
   1461 ****        63.0000  15.5000  28.0000 Du        
   1462 ****        63.0000  15.5000  28.2500 Du        
   1463 ****        63.0000  15.5000  28.5000 Du        
   1464 ****        63.0000  15.5000  28.7500 Du        
   1465 ****        63.0000  15.5000  29.0000 Du        
   1466 ****        63.0000  15.5000  29.2500 Du        
   1467 ****        63.0000  15.5000  29.5000 Du        
   1468 ****        63.0000  15.5000  29.7500 Du        
   1469 ****        63.0000  15.5000  30.0000 Du        
   1470 ****        63.0000  15.5000  30.2500 Du        
   1471 ****        63.0000  15.5000  30.5000 Du        
   1472 ****        63.0000  15.5000  30.7500 Du        
   1473 ****        63.0000  15.5000  31.0000 Du        
   1474 ****        63.0000  15.5000  31.2500 Du        
   1475 ****        63.0000  15.7500  28.0000 Du        
   1476 ****        63.0000  15.7500  28.2500 Du        
   1477 ****        63.0000  15.7500  28.5000 Du        
   1478 ****        63.0000  15.7500  28.7500 Du        
   1479 ****        63.0000  15.7500  29.0000 Du        
   1480 ****        63.0000  15.7500  29.2500 Du        
   1481 ****        63.0000  15.7500  29.5000 Du        
   1482 ****        63.0000  15.7500  29.7500 Du        
   1483 ****        63.0000  15.7500  30.0000 Du        
   1484 ****        63.0000  15.7500  30.2500 Du        
   1485 ****        63.0000  15.7500  30.5000 Du        
   1486 ****        63.0000  15.7500  30.7500 Du        
   1487 ****        63.0000  15.7500  31.0000 Du        
   1488 ****        63.0000  16.0000  28.5000 Du        
   1489 ****        63.0000  16.0000  28.7500 Du        
   1490 ****        63.0000  16.0000  29.0000 Du        
   1491 ****        63.0000  16.0000  29.2500 Du        
   1492 ****        63.0000  16.0000  29.5000 Du        
   1493 ****        63.0000  16.0000  29.7500 Du        
   1494 ****        63.0000  16.0000  30.0000 Du        
   1495 ****        63.0000  16.0000  30.2500 Du        
   1496 ****        63.0000  16.0000  30.5000 Du        
   1497 ****        63.0000  16.2500  28.7500 Du        
   1498 ****        63.0000  16.2500  29.0000 Du        
   1499 ****        63.0000  16.2500  29.2500 Du        
   1500 ****        63.0000  16.2500  29.5000 Du        
   1501 ****        63.0000  16.2500  29.7500 Du        
   1502 ****        63.0000  16.2500  30.0000 Du        
   1503 ****        63.0000  22.2500  24.7500 Du        
   1504 ****        63.0000  22.2500  25.0000 Du        
   1505 ****        63.0000  22.2500  25.2500 Du        
   1506 ****        63.0000  22.2500  25.5000 Du        
   1507 ****        63.0000  22.2500  25.7500 Du        
   1508 ****        63.0000  22.5000  24.5000 Du        
   1509 ****        63.0000  22.5000  24.7500 Du        
   1510 ****        63.0000  22.5000  25.0000 Du        
   1511 ****        63.0000  22.5000  25.2500 Du        
   1512 ****        63.0000  22.5000  25.5000 Du        
   1513 ****        63.0000  22.5000  25.7500 Du        
   1514 ****        63.0000  22.5000  26.0000 Du        
   1515 ****        63.0000  22.7500  24.0000 Du        
   1516 ****        63.0000  22.7500  24.2500 Du        
   1517 ****        63.0000  22.7500  24.5000 Du        
   1518 ****        63.0000  22.7500  24.7500 Du        
   1519 ****        63.0000  22.7500  25.0000 Du        
   1520 ****        63.0000  22.7500  25.2500 Du        
   1521 ****        63.0000  22.7500  25.5000 Du        
   1522 ****        63.0000  22.7500  25.7500 Du        
   1523 ****        63.0000  22.7500  26.0000 Du        
   1524 ****        63.0000  22.7500  26.2500 Du        
   1525 ****        63.0000  23.0000  24.0000 Du        
   1526 ****        63.0000  23.0000  24.2500 Du        
   1527 ****        63.0000  23.0000  24.5000 Du        
   1528 ****        63.0000  23.0000  24.7500 Du        
   1529 ****        63.0000  23.0000  25.0000 Du        
   1530 ****        63.0000  23.0000  25.2500 Du        
   1531 ****        63.0000  23.0000  25.5000 Du        
   1532 ****        63.0000  23.0000  25.7500 Du        
   1533 ****        63.0000  23.0000  26.0000 Du        
   1534 ****        63.0000  23.0000  26.2500 Du        
   1535 ****        63.0000  23.2500  24.0000 Du        
   1536 ****        63.0000  23.2500  24.2500 Du        
   1537 ****        63.0000  23.2500  24.5000 Du        
   1538 ****        63.0000  23.2500  24.7500 Du        
   1539 ****        63.0000  23.2500  25.0000 Du        
   1540 ****        63.0000  23.2500  25.2500 Du        
   1541 ****        63.0000  23.2500  25.5000 Du        
   1542 ****        63.0000  23.2500  25.7500 Du        
   1543 ****        63.0000  23.2500  26.0000 Du        
   1544 ****        63.0000  23.2500  26.2500 Du        
   1545 ****        63.0000  23.2500  26.5000 Du        
   1546 ****        63.0000  23.5000  24.5000 Du        
   1547 ****        63.0000  23.5000  24.7500 Du        
   1548 ****        63.0000  23.5000  25.0000 Du        
   1549 ****        63.0000  23.5000  25.2500 Du        
   1550 ****        63.0000  23.5000  25.5000 Du        
   1551 ****        63.0000  23.5000  25.7500 Du        
   1552 ****        63.0000  23.5000  26.0000 Du        
   1553 ****        63.0000  23.5000  26.2500 Du        
   1554 ****        63.0000  23.5000  26.5000 Du        
   1555 ****        63.0000  23.5000  26.7500 Du        
   1556 ****        63.0000  23.7500  24.7500 Du        
   1557 ****        63.0000  23.7500  25.0000 Du        
   1558 ****        63.0000  23.7500  25.2500 Du        
   1559 ****        63.0000  23.7500  25.5000 Du        
   1560 ****        63.0000  23.7500  25.7500 Du        
   1561 ****        63.0000  23.7500  26.0000 Du        
   1562 ****        63.0000  23.7500  26.2500 Du        
   1563 ****        63.0000  23.7500  26.5000 Du        
   1564 ****        63.0000  23.7500  26.7500 Du        
   1565 ****        63.0000  23.7500  27.0000 Du        
   1566 ****        63.2500  11.0000  25.0000 Du        
   1567 ****        63.2500  11.0000  25.2500 Du        
   1568 ****        63.2500  11.2500  25.0000 Du        
   1569 ****        63.2500  11.2500  25.2500 Du        
   1570 ****        63.2500  11.5000  25.0000 Du        
   1571 ****        63.2500  13.2500  29.5000 Du        
   1572 ****        63.2500  13.2500  29.7500 Du        
   1573 ****        63.2500  13.2500  30.0000 Du        
   1574 ****        63.2500  13.2500  30.2500 Du        
   1575 ****        63.2500  13.2500  30.5000 Du        
   1576 ****        63.2500  13.2500  30.7500 Du        
   1577 ****        63.2500  13.5000  29.2500 Du        
   1578 ****        63.2500  13.5000  29.5000 Du        
   1579 ****        63.2500  13.5000  29.7500 Du        
   1580 ****        63.2500  13.5000  30.0000 Du        
   1581 ****        63.2500  13.5000  30.2500 Du        
   1582 ****        63.2500  13.5000  30.5000 Du        
   1583 ****        63.2500  13.5000  30.7500 Du        
   1584 ****        63.2500  13.7500  29.0000 Du        
   1585 ****        63.2500  13.7500  29.2500 Du        
   1586 ****        63.2500  13.7500  29.5000 Du        
   1587 ****        63.2500  13.7500  29.7500 Du        
   1588 ****        63.2500  13.7500  30.0000 Du        
   1589 ****        63.2500  13.7500  30.2500 Du        
   1590 ****        63.2500  13.7500  30.5000 Du        
   1591 ****        63.2500  13.7500  30.7500 Du        
   1592 ****        63.2500  13.7500  31.0000 Du        
   1593 ****        63.2500  14.0000  28.7500 Du        
   1594 ****        63.2500  14.0000  29.0000 Du        
   1595 ****        63.2500  14.0000  29.2500 Du        
   1596 ****        63.2500  14.0000  29.5000 Du        
   1597 ****        63.2500  14.0000  29.7500 Du        
   1598 ****        63.2500  14.0000  30.0000 Du        
   1599 ****        63.2500  14.0000  30.2500 Du        
   1600 ****        63.2500  14.0000  30.5000 Du        
   1601 ****        63.2500  14.0000  30.7500 Du        
   1602 ****        63.2500  14.0000  31.0000 Du        
   1603 ****        63.2500  14.0000  31.2500 Du        
   1604 ****        63.2500  14.2500  28.5000 Du        
   1605 ****        63.2500  14.2500  28.7500 Du        
   1606 ****        63.2500  14.2500  29.0000 Du        
   1607 ****        63.2500  14.2500  29.2500 Du        
   1608 ****        63.2500  14.2500  29.5000 Du        
   1609 ****        63.2500  14.2500  29.7500 Du        
   1610 ****        63.2500  14.2500  30.0000 Du        
   1611 ****        63.2500  14.2500  30.2500 Du        
   1612 ****        63.2500  14.2500  30.5000 Du        
   1613 ****        63.2500  14.2500  30.7500 Du        
   1614 ****        63.2500  14.2500  31.0000 Du        
   1615 ****        63.2500  14.2500  31.2500 Du        
   1616 ****        63.2500  14.5000  28.2500 Du        
   1617 ****        63.2500  14.5000  28.5000 Du        
   1618 ****        63.2500  14.5000  28.7500 Du        
   1619 ****        63.2500  14.5000  29.0000 Du        
   1620 ****        63.2500  14.5000  29.2500 Du        
   1621 ****        63.2500  14.5000  29.5000 Du        
   1622 ****        63.2500  14.5000  29.7500 Du        
   1623 ****        63.2500  14.5000  30.0000 Du        
   1624 ****        63.2500  14.5000  30.2500 Du        
   1625 ****        63.2500  14.5000  30.5000 Du        
   1626 ****        63.2500  14.5000  30.7500 Du        
   1627 ****        63.2500  14.5000  31.0000 Du        
   1628 ****        63.2500  14.5000  31.2500 Du        
   1629 ****        63.2500  14.5000  31.5000 Du        
   1630 ****        63.2500  14.7500  28.0000 Du        
   1631 ****        63.2500  14.7500  28.2500 Du        
   1632 ****        63.2500  14.7500  28.5000 Du        
   1633 ****        63.2500  14.7500  28.7500 Du        
   1634 ****        63.2500  14.7500  29.0000 Du        
   1635 ****        63.2500  14.7500  29.2500 Du        
   1636 ****        63.2500  14.7500  29.5000 Du        
   1637 ****        63.2500  14.7500  29.7500 Du        
   1638 ****        63.2500  14.7500  30.0000 Du        
   1639 ****        63.2500  14.7500  30.2500 Du        
   1640 ****        63.2500  14.7500  30.5000 Du        
   1641 ****        63.2500  14.7500  30.7500 Du        
   1642 ****        63.2500  14.7500  31.0000 Du        
   1643 ****        63.2500  14.7500  31.2500 Du        
   1644 ****        63.2500  14.7500  31.5000 Du        
   1645 ****        63.2500  15.0000  27.7500 Du        
   1646 ****        63.2500  15.0000  28.0000 Du        
   1647 ****        63.2500  15.0000  28.2500 Du        
   1648 ****        63.2500  15.0000  28.5000 Du        
   1649 ****        63.2500  15.0000  28.7500 Du        
   1650 ****        63.2500  15.0000  29.0000 Du        
   1651 ****        63.2500  15.0000  29.2500 Du        
   1652 ****        63.2500  15.0000  29.5000 Du        
   1653 ****        63.2500  15.0000  29.7500 Du        
   1654 ****        63.2500  15.0000  30.0000 Du        
   1655 ****        63.2500  15.0000  30.2500 Du        
   1656 ****        63.2500  15.0000  30.5000 Du        
   1657 ****        63.2500  15.0000  30.7500 Du        
   1658 ****        63.2500  15.0000  31.0000 Du        
   1659 ****        63.2500  15.0000  31.2500 Du        
   1660 ****        63.2500  15.0000  31.5000 Du        
   1661 ****        63.2500  15.0000  31.7500 Du        
   1662 ****        63.2500  15.2500  27.7500 Du        
   1663 ****        63.2500  15.2500  28.0000 Du        
   1664 ****        63.2500  15.2500  28.2500 Du        
   1665 ****        63.2500  15.2500  28.5000 Du        
   1666 ****        63.2500  15.2500  28.7500 Du        
   1667 ****        63.2500  15.2500  29.0000 Du        
   1668 ****        63.2500  15.2500  29.2500 Du        
   1669 ****        63.2500  15.2500  29.5000 Du        
   1670 ****        63.2500  15.2500  29.7500 Du        
   1671 ****        63.2500  15.2500  30.0000 Du        
   1672 ****        63.2500  15.2500  30.2500 Du        
   1673 ****        63.2500  15.2500  30.5000 Du        
   1674 ****        63.2500  15.2500  30.7500 Du        
   1675 ****        63.2500  15.2500  31.0000 Du        
   1676 ****        63.2500  15.2500  31.2500 Du        
   1677 ****        63.2500  15.2500  31.5000 Du        
   1678 ****        63.2500  15.2500  31.7500 Du        
   1679 ****        63.2500  15.5000  27.7500 Du        
   1680 ****        63.2500  15.5000  28.0000 Du        
   1681 ****        63.2500  15.5000  28.2500 Du        
   1682 ****        63.2500  15.5000  28.5000 Du        
   1683 ****        63.2500  15.5000  28.7500 Du        
   1684 ****        63.2500  15.5000  29.0000 Du        
   1685 ****        63.2500  15.5000  29.2500 Du        
   1686 ****        63.2500  15.5000  29.5000 Du        
   1687 ****        63.2500  15.5000  29.7500 Du        
   1688 ****        63.2500  15.5000  30.0000 Du        
   1689 ****        63.2500  15.5000  30.2500 Du        
   1690 ****        63.2500  15.5000  30.5000 Du        
   1691 ****        63.2500  15.5000  30.7500 Du        
   1692 ****        63.2500  15.5000  31.0000 Du        
   1693 ****        63.2500  15.5000  31.2500 Du        
   1694 ****        63.2500  15.5000  31.5000 Du        
   1695 ****        63.2500  15.5000  31.7500 Du        
   1696 ****        63.2500  15.7500  27.7500 Du        
   1697 ****        63.2500  15.7500  28.0000 Du        
   1698 ****        63.2500  15.7500  28.2500 Du        
   1699 ****        63.2500  15.7500  28.5000 Du        
   1700 ****        63.2500  15.7500  28.7500 Du        
   1701 ****        63.2500  15.7500  29.0000 Du        
   1702 ****        63.2500  15.7500  29.2500 Du        
   1703 ****        63.2500  15.7500  29.5000 Du        
   1704 ****        63.2500  15.7500  29.7500 Du        
   1705 ****        63.2500  15.7500  30.0000 Du        
   1706 ****        63.2500  15.7500  30.2500 Du        
   1707 ****        63.2500  15.7500  30.5000 Du        
   1708 ****        63.2500  15.7500  30.7500 Du        
   1709 ****        63.2500  15.7500  31.0000 Du        
   1710 ****        63.2500  15.7500  31.2500 Du        
   1711 ****        63.2500  15.7500  31.5000 Du        
   1712 ****        63.2500  16.0000  28.0000 Du        
   1713 ****        63.2500  16.0000  28.2500 Du        
   1714 ****        63.2500  16.0000  28.5000 Du        
   1715 ****        63.2500  16.0000  28.7500 Du        
   1716 ****        63.2500  16.0000  29.0000 Du        
   1717 ****        63.2500  16.0000  29.2500 Du        
   1718 ****        63.2500  16.0000  29.5000 Du        
   1719 ****        63.2500  16.0000  29.7500 Du        
   1720 ****        63.2500  16.0000  30.0000 Du        
   1721 ****        63.2500  16.0000  30.2500 Du        
   1722 ****        63.2500  16.0000  30.5000 Du        
   1723 ****        63.2500  16.0000  30.7500 Du        
   1724 ****        63.2500  16.0000  31.0000 Du        
   1725 ****        63.2500  16.2500  28.5000 Du        
   1726 ****        63.2500  16.2500  28.7500 Du        
   1727 ****        63.2500  16.2500  29.0000 Du        
   1728 ****        63.2500  16.2500  29.2500 Du        
   1729 ****        63.2500  16.2500  29.5000 Du        
   1730 ****        63.2500  16.2500  29.7500 Du        
   1731 ****        63.2500  16.2500  30.0000 Du        
   1732 ****        63.2500  16.2500  30.2500 Du        
   1733 ****        63.2500  16.2500  30.5000 Du        
   1734 ****        63.2500  16.2500  30.7500 Du        
   1735 ****        63.2500  16.5000  29.0000 Du        
   1736 ****        63.2500  16.5000  29.2500 Du        
   1737 ****        63.2500  16.5000  29.5000 Du        
   1738 ****        63.2500  16.5000  29.7500 Du        
   1739 ****        63.2500  16.5000  30.0000 Du        
   1740 ****        63.2500  16.5000  30.2500 Du        
   1741 ****        63.2500  16.7500  29.2500 Du        
   1742 ****        63.2500  16.7500  29.5000 Du        
   1743 ****        63.2500  16.7500  29.7500 Du        
   1744 ****        63.2500  22.0000  25.2500 Du        
   1745 ****        63.2500  22.0000  25.5000 Du        
   1746 ****        63.2500  22.2500  24.7500 Du        
   1747 ****        63.2500  22.2500  25.0000 Du        
   1748 ****        63.2500  22.2500  25.2500 Du        
   1749 ****        63.2500  22.2500  25.5000 Du        
   1750 ****        63.2500  22.2500  25.7500 Du        
   1751 ****        63.2500  22.5000  24.5000 Du        
   1752 ****        63.2500  22.5000  24.7500 Du        
   1753 ****        63.2500  22.5000  25.0000 Du        
   1754 ****        63.2500  22.5000  25.2500 Du        
   1755 ****        63.2500  22.5000  25.5000 Du        
   1756 ****        63.2500  22.5000  25.7500 Du        
   1757 ****        63.2500  22.5000  26.0000 Du        
   1758 ****        63.2500  22.7500  24.0000 Du        
   1759 ****        63.2500  22.7500  24.2500 Du        
   1760 ****        63.2500  22.7500  24.5000 Du        
   1761 ****        63.2500  22.7500  24.7500 Du        
   1762 ****        63.2500  22.7500  25.0000 Du        
   1763 ****        63.2500  22.7500  25.2500 Du        
   1764 ****        63.2500  22.7500  25.5000 Du        
   1765 ****        63.2500  22.7500  25.7500 Du        
   1766 ****        63.2500  22.7500  26.0000 Du        
   1767 ****        63.2500  22.7500  26.2500 Du        
   1768 ****        63.2500  23.0000  23.7500 Du        
   1769 ****        63.2500  23.0000  24.0000 Du        
   1770 ****        63.2500  23.0000  24.2500 Du        
   1771 ****        63.2500  23.0000  24.5000 Du        
   1772 ****        63.2500  23.0000  24.7500 Du        
   1773 ****        63.2500  23.0000  25.0000 Du        
   1774 ****        63.2500  23.0000  25.2500 Du        
   1775 ****        63.2500  23.0000  25.5000 Du        
   1776 ****        63.2500  23.0000  25.7500 Du        
   1777 ****        63.2500  23.0000  26.0000 Du        
   1778 ****        63.2500  23.0000  26.2500 Du        
   1779 ****        63.2500  23.2500  23.7500 Du        
   1780 ****        63.2500  23.2500  24.0000 Du        
   1781 ****        63.2500  23.2500  24.2500 Du        
   1782 ****        63.2500  23.2500  24.5000 Du        
   1783 ****        63.2500  23.2500  24.7500 Du        
   1784 ****        63.2500  23.2500  25.0000 Du        
   1785 ****        63.2500  23.2500  25.2500 Du        
   1786 ****        63.2500  23.2500  25.5000 Du        
   1787 ****        63.2500  23.2500  25.7500 Du        
   1788 ****        63.2500  23.2500  26.0000 Du        
   1789 ****        63.2500  23.2500  26.2500 Du        
   1790 ****        63.2500  23.2500  26.5000 Du        
   1791 ****        63.2500  23.5000  20.7500 Du        
   1792 ****        63.2500  23.5000  21.0000 Du        
   1793 ****        63.2500  23.5000  21.2500 Du        
   1794 ****        63.2500  23.5000  24.0000 Du        
   1795 ****        63.2500  23.5000  24.2500 Du        
   1796 ****        63.2500  23.5000  24.5000 Du        
   1797 ****        63.2500  23.5000  24.7500 Du        
   1798 ****        63.2500  23.5000  25.0000 Du        
   1799 ****        63.2500  23.5000  25.2500 Du        
   1800 ****        63.2500  23.5000  25.5000 Du        
   1801 ****        63.2500  23.5000  25.7500 Du        
   1802 ****        63.2500  23.5000  26.0000 Du        
   1803 ****        63.2500  23.5000  26.2500 Du        
   1804 ****        63.2500  23.5000  26.5000 Du        
   1805 ****        63.2500  23.5000  26.7500 Du        
   1806 ****        63.2500  23.7500  20.2500 Du        
   1807 ****        63.2500  23.7500  20.5000 Du        
   1808 ****        63.2500  23.7500  20.7500 Du        
   1809 ****        63.2500  23.7500  21.0000 Du        
   1810 ****        63.2500  23.7500  21.2500 Du        
   1811 ****        63.2500  23.7500  21.5000 Du        
   1812 ****        63.2500  23.7500  21.7500 Du        
   1813 ****        63.2500  23.7500  24.2500 Du        
   1814 ****        63.2500  23.7500  24.5000 Du        
   1815 ****        63.2500  23.7500  24.7500 Du        
   1816 ****        63.2500  23.7500  25.0000 Du        
   1817 ****        63.2500  23.7500  25.2500 Du        
   1818 ****        63.2500  23.7500  25.5000 Du        
   1819 ****        63.2500  23.7500  25.7500 Du        
   1820 ****        63.2500  23.7500  26.0000 Du        
   1821 ****        63.2500  23.7500  26.2500 Du        
   1822 ****        63.2500  23.7500  26.5000 Du        
   1823 ****        63.2500  23.7500  26.7500 Du        
   1824 ****        63.2500  23.7500  27.0000 Du        
   1825 ****        63.5000  13.2500  30.0000 Du        
   1826 ****        63.5000  13.2500  30.2500 Du        
   1827 ****        63.5000  13.2500  30.5000 Du        
   1828 ****        63.5000  13.5000  29.7500 Du        
   1829 ****        63.5000  13.5000  30.0000 Du        
   1830 ****        63.5000  13.5000  30.2500 Du        
   1831 ****        63.5000  13.5000  30.5000 Du        
   1832 ****        63.5000  13.5000  30.7500 Du        
   1833 ****        63.5000  13.5000  31.0000 Du        
   1834 ****        63.5000  13.7500  29.2500 Du        
   1835 ****        63.5000  13.7500  29.5000 Du        
   1836 ****        63.5000  13.7500  29.7500 Du        
   1837 ****        63.5000  13.7500  30.0000 Du        
   1838 ****        63.5000  13.7500  30.2500 Du        
   1839 ****        63.5000  13.7500  30.5000 Du        
   1840 ****        63.5000  13.7500  30.7500 Du        
   1841 ****        63.5000  13.7500  31.0000 Du        
   1842 ****        63.5000  13.7500  31.2500 Du        
   1843 ****        63.5000  14.0000  29.0000 Du        
   1844 ****        63.5000  14.0000  29.2500 Du        
   1845 ****        63.5000  14.0000  29.5000 Du        
   1846 ****        63.5000  14.0000  29.7500 Du        
   1847 ****        63.5000  14.0000  30.0000 Du        
   1848 ****        63.5000  14.0000  30.2500 Du        
   1849 ****        63.5000  14.0000  30.5000 Du        
   1850 ****        63.5000  14.0000  30.7500 Du        
   1851 ****        63.5000  14.0000  31.0000 Du        
   1852 ****        63.5000  14.0000  31.2500 Du        
   1853 ****        63.5000  14.2500  29.0000 Du        
   1854 ****        63.5000  14.2500  29.2500 Du        
   1855 ****        63.5000  14.2500  29.5000 Du        
   1856 ****        63.5000  14.2500  29.7500 Du        
   1857 ****        63.5000  14.2500  30.0000 Du        
   1858 ****        63.5000  14.2500  30.2500 Du        
   1859 ****        63.5000  14.2500  30.5000 Du        
   1860 ****        63.5000  14.2500  30.7500 Du        
   1861 ****        63.5000  14.2500  31.0000 Du        
   1862 ****        63.5000  14.2500  31.2500 Du        
   1863 ****        63.5000  14.2500  31.5000 Du        
   1864 ****        63.5000  14.5000  29.2500 Du        
   1865 ****        63.5000  14.5000  29.5000 Du        
   1866 ****        63.5000  14.5000  29.7500 Du        
   1867 ****        63.5000  14.5000  30.0000 Du        
   1868 ****        63.5000  14.5000  30.2500 Du        
   1869 ****        63.5000  14.5000  30.5000 Du        
   1870 ****        63.5000  14.5000  30.7500 Du        
   1871 ****        63.5000  14.5000  31.0000 Du        
   1872 ****        63.5000  14.5000  31.2500 Du        
   1873 ****        63.5000  14.5000  31.5000 Du        
   1874 ****        63.5000  14.7500  28.7500 Du        
   1875 ****        63.5000  14.7500  29.0000 Du        
   1876 ****        63.5000  14.7500  29.2500 Du        
   1877 ****        63.5000  14.7500  29.5000 Du        
   1878 ****        63.5000  14.7500  29.7500 Du        
   1879 ****        63.5000  14.7500  30.0000 Du        
   1880 ****        63.5000  14.7500  30.2500 Du        
   1881 ****        63.5000  14.7500  30.5000 Du        
   1882 ****        63.5000  14.7500  30.7500 Du        
   1883 ****        63.5000  14.7500  31.0000 Du        
   1884 ****        63.5000  14.7500  31.2500 Du        
   1885 ****        63.5000  14.7500  31.5000 Du        
   1886 ****        63.5000  14.7500  31.7500 Du        
   1887 ****        63.5000  15.0000  28.2500 Du        
   1888 ****        63.5000  15.0000  28.5000 Du        
   1889 ****        63.5000  15.0000  28.7500 Du        
   1890 ****        63.5000  15.0000  29.0000 Du        
   1891 ****        63.5000  15.0000  29.2500 Du        
   1892 ****        63.5000  15.0000  29.5000 Du        
   1893 ****        63.5000  15.0000  29.7500 Du        
   1894 ****        63.5000  15.0000  30.0000 Du        
   1895 ****        63.5000  15.0000  30.2500 Du        
   1896 ****        63.5000  15.0000  30.5000 Du        
   1897 ****        63.5000  15.0000  30.7500 Du        
   1898 ****        63.5000  15.0000  31.0000 Du        
   1899 ****        63.5000  15.0000  31.2500 Du        
   1900 ****        63.5000  15.0000  31.5000 Du        
   1901 ****        63.5000  15.0000  31.7500 Du        
   1902 ****        63.5000  15.0000  32.0000 Du        
   1903 ****        63.5000  15.2500  27.7500 Du        
   1904 ****        63.5000  15.2500  28.0000 Du        
   1905 ****        63.5000  15.2500  28.2500 Du        
   1906 ****        63.5000  15.2500  28.5000 Du        
   1907 ****        63.5000  15.2500  28.7500 Du        
   1908 ****        63.5000  15.2500  29.0000 Du        
   1909 ****        63.5000  15.2500  29.2500 Du        
   1910 ****        63.5000  15.2500  29.5000 Du        
   1911 ****        63.5000  15.2500  29.7500 Du        
   1912 ****        63.5000  15.2500  30.0000 Du        
   1913 ****        63.5000  15.2500  30.2500 Du        
   1914 ****        63.5000  15.2500  30.5000 Du        
   1915 ****        63.5000  15.2500  30.7500 Du        
   1916 ****        63.5000  15.2500  31.0000 Du        
   1917 ****        63.5000  15.2500  31.2500 Du        
   1918 ****        63.5000  15.2500  31.5000 Du        
   1919 ****        63.5000  15.2500  31.7500 Du        
   1920 ****        63.5000  15.2500  32.0000 Du        
   1921 ****        63.5000  15.5000  27.5000 Du        
   1922 ****        63.5000  15.5000  27.7500 Du        
   1923 ****        63.5000  15.5000  28.0000 Du        
   1924 ****        63.5000  15.5000  28.2500 Du        
   1925 ****        63.5000  15.5000  28.5000 Du        
   1926 ****        63.5000  15.5000  28.7500 Du        
   1927 ****        63.5000  15.5000  29.0000 Du        
   1928 ****        63.5000  15.5000  29.2500 Du        
   1929 ****        63.5000  15.5000  29.5000 Du        
   1930 ****        63.5000  15.5000  29.7500 Du        
   1931 ****        63.5000  15.5000  30.0000 Du        
   1932 ****        63.5000  15.5000  30.2500 Du        
   1933 ****        63.5000  15.5000  30.5000 Du        
   1934 ****        63.5000  15.5000  30.7500 Du        
   1935 ****        63.5000  15.5000  31.0000 Du        
   1936 ****        63.5000  15.5000  31.2500 Du        
   1937 ****        63.5000  15.5000  31.5000 Du        
   1938 ****        63.5000  15.5000  31.7500 Du        
   1939 ****        63.5000  15.5000  32.0000 Du        
   1940 ****        63.5000  15.7500  27.7500 Du        
   1941 ****        63.5000  15.7500  28.0000 Du        
   1942 ****        63.5000  15.7500  28.2500 Du        
   1943 ****        63.5000  15.7500  28.5000 Du        
   1944 ****        63.5000  15.7500  28.7500 Du        
   1945 ****        63.5000  15.7500  29.0000 Du        
   1946 ****        63.5000  15.7500  29.2500 Du        
   1947 ****        63.5000  15.7500  29.5000 Du        
   1948 ****        63.5000  15.7500  29.7500 Du        
   1949 ****        63.5000  15.7500  30.0000 Du        
   1950 ****        63.5000  15.7500  30.2500 Du        
   1951 ****        63.5000  15.7500  30.5000 Du        
   1952 ****        63.5000  15.7500  30.7500 Du        
   1953 ****        63.5000  15.7500  31.0000 Du        
   1954 ****        63.5000  15.7500  31.2500 Du        
   1955 ****        63.5000  15.7500  31.5000 Du        
   1956 ****        63.5000  15.7500  31.7500 Du        
   1957 ****        63.5000  16.0000  28.0000 Du        
   1958 ****        63.5000  16.0000  28.2500 Du        
   1959 ****        63.5000  16.0000  28.5000 Du        
   1960 ****        63.5000  16.0000  28.7500 Du        
   1961 ****        63.5000  16.0000  29.0000 Du        
   1962 ****        63.5000  16.0000  29.2500 Du        
   1963 ****        63.5000  16.0000  29.5000 Du        
   1964 ****        63.5000  16.0000  29.7500 Du        
   1965 ****        63.5000  16.0000  30.0000 Du        
   1966 ****        63.5000  16.0000  30.2500 Du        
   1967 ****        63.5000  16.0000  30.5000 Du        
   1968 ****        63.5000  16.0000  30.7500 Du        
   1969 ****        63.5000  16.0000  31.0000 Du        
   1970 ****        63.5000  16.0000  31.2500 Du        
   1971 ****        63.5000  16.0000  31.5000 Du        
   1972 ****        63.5000  16.2500  28.2500 Du        
   1973 ****        63.5000  16.2500  28.5000 Du        
   1974 ****        63.5000  16.2500  28.7500 Du        
   1975 ****        63.5000  16.2500  29.0000 Du        
   1976 ****        63.5000  16.2500  29.2500 Du        
   1977 ****        63.5000  16.2500  29.5000 Du        
   1978 ****        63.5000  16.2500  29.7500 Du        
   1979 ****        63.5000  16.2500  30.0000 Du        
   1980 ****        63.5000  16.2500  30.2500 Du        
   1981 ****        63.5000  16.2500  30.5000 Du        
   1982 ****        63.5000  16.2500  30.7500 Du        
   1983 ****        63.5000  16.2500  31.0000 Du        
   1984 ****        63.5000  16.5000  28.5000 Du        
   1985 ****        63.5000  16.5000  28.7500 Du        
   1986 ****        63.5000  16.5000  29.0000 Du        
   1987 ****        63.5000  16.5000  29.2500 Du        
   1988 ****        63.5000  16.5000  29.5000 Du        
   1989 ****        63.5000  16.5000  29.7500 Du        
   1990 ****        63.5000  16.5000  30.0000 Du        
   1991 ****        63.5000  16.5000  30.2500 Du        
   1992 ****        63.5000  16.5000  30.5000 Du        
   1993 ****        63.5000  16.7500  28.7500 Du        
   1994 ****        63.5000  16.7500  29.0000 Du        
   1995 ****        63.5000  16.7500  29.2500 Du        
   1996 ****        63.5000  16.7500  29.5000 Du        
   1997 ****        63.5000  16.7500  29.7500 Du        
   1998 ****        63.5000  16.7500  30.0000 Du        
   1999 ****        63.5000  16.7500  30.2500 Du        
   2000 ****        63.5000  17.0000  29.0000 Du        
   2001 ****        63.5000  17.0000  29.2500 Du        
   2002 ****        63.5000  17.0000  29.5000 Du        
   2003 ****        63.5000  17.0000  29.7500 Du        
   2004 ****        63.5000  17.0000  30.0000 Du        
   2005 ****        63.5000  22.0000  25.2500 Du        
   2006 ****        63.5000  22.0000  25.5000 Du        
   2007 ****        63.5000  22.0000  25.7500 Du        
   2008 ****        63.5000  22.2500  24.7500 Du        
   2009 ****        63.5000  22.2500  25.0000 Du        
   2010 ****        63.5000  22.2500  25.2500 Du        
   2011 ****        63.5000  22.2500  25.5000 Du        
   2012 ****        63.5000  22.2500  25.7500 Du        
   2013 ****        63.5000  22.5000  24.7500 Du        
   2014 ****        63.5000  22.5000  25.0000 Du        
   2015 ****        63.5000  22.5000  25.2500 Du        
   2016 ****        63.5000  22.5000  25.5000 Du        
   2017 ****        63.5000  22.5000  25.7500 Du        
   2018 ****        63.5000  22.5000  26.0000 Du        
   2019 ****        63.5000  22.7500  24.0000 Du        
   2020 ****        63.5000  22.7500  24.2500 Du        
   2021 ****        63.5000  22.7500  24.5000 Du        
   2022 ****        63.5000  22.7500  24.7500 Du        
   2023 ****        63.5000  22.7500  25.0000 Du        
   2024 ****        63.5000  22.7500  25.2500 Du        
   2025 ****        63.5000  22.7500  25.5000 Du        
   2026 ****        63.5000  22.7500  25.7500 Du        
   2027 ****        63.5000  22.7500  26.0000 Du        
   2028 ****        63.5000  22.7500  26.2500 Du        
   2029 ****        63.5000  23.0000  23.5000 Du        
   2030 ****        63.5000  23.0000  23.7500 Du        
   2031 ****        63.5000  23.0000  24.0000 Du        
   2032 ****        63.5000  23.0000  24.2500 Du        
   2033 ****        63.5000  23.0000  24.5000 Du        
   2034 ****        63.5000  23.0000  24.7500 Du        
   2035 ****        63.5000  23.0000  25.0000 Du        
   2036 ****        63.5000  23.0000  25.2500 Du        
   2037 ****        63.5000  23.0000  25.5000 Du        
   2038 ****        63.5000  23.0000  25.7500 Du        
   2039 ****        63.5000  23.0000  26.0000 Du        
   2040 ****        63.5000  23.0000  26.2500 Du        
   2041 ****        63.5000  23.2500  23.0000 Du        
   2042 ****        63.5000  23.2500  23.2500 Du        
   2043 ****        63.5000  23.2500  23.5000 Du        
   2044 ****        63.5000  23.2500  23.7500 Du        
   2045 ****        63.5000  23.2500  24.0000 Du        
   2046 ****        63.5000  23.2500  24.2500 Du        
   2047 ****        63.5000  23.2500  24.5000 Du        
   2048 ****        63.5000  23.2500  24.7500 Du        
   2049 ****        63.5000  23.2500  25.0000 Du        
   2050 ****        63.5000  23.2500  25.2500 Du        
   2051 ****        63.5000  23.2500  25.5000 Du        
   2052 ****        63.5000  23.2500  25.7500 Du        
   2053 ****        63.5000  23.2500  26.0000 Du        
   2054 ****        63.5000  23.2500  26.2500 Du        
   2055 ****        63.5000  23.2500  26.5000 Du        
   2056 ****        63.5000  23.5000  20.7500 Du        
   2057 ****        63.5000  23.5000  21.0000 Du        
   2058 ****        63.5000  23.5000  21.2500 Du        
   2059 ****        63.5000  23.5000  21.5000 Du        
   2060 ****        63.5000  23.5000  21.7500 Du        
   2061 ****        63.5000  23.5000  22.0000 Du        
   2062 ****        63.5000  23.5000  22.2500 Du        
   2063 ****        63.5000  23.5000  23.0000 Du        
   2064 ****        63.5000  23.5000  23.2500 Du        
   2065 ****        63.5000  23.5000  23.7500 Du        
   2066 ****        63.5000  23.5000  24.0000 Du        
   2067 ****        63.5000  23.5000  24.2500 Du        
   2068 ****        63.5000  23.5000  24.5000 Du        
   2069 ****        63.5000  23.5000  24.7500 Du        
   2070 ****        63.5000  23.5000  25.0000 Du        
   2071 ****        63.5000  23.5000  25.2500 Du        
   2072 ****        63.5000  23.5000  25.5000 Du        
   2073 ****        63.5000  23.5000  25.7500 Du        
   2074 ****        63.5000  23.5000  26.0000 Du        
   2075 ****        63.5000  23.5000  26.2500 Du        
   2076 ****        63.5000  23.5000  26.5000 Du        
   2077 ****        63.5000  23.5000  26.7500 Du        
   2078 ****        63.5000  23.7500  20.2500 Du        
   2079 ****        63.5000  23.7500  20.5000 Du        
   2080 ****        63.5000  23.7500  20.7500 Du        
   2081 ****        63.5000  23.7500  21.0000 Du        
   2082 ****        63.5000  23.7500  21.2500 Du        
   2083 ****        63.5000  23.7500  21.5000 Du        
   2084 ****        63.5000  23.7500  21.7500 Du        
   2085 ****        63.5000  23.7500  22.0000 Du        
   2086 ****        63.5000  23.7500  22.2500 Du        
   2087 ****        63.5000  23.7500  22.5000 Du        
   2088 ****        63.5000  23.7500  22.7500 Du        
   2089 ****        63.5000  23.7500  23.0000 Du        
   2090 ****        63.5000  23.7500  23.2500 Du        
   2091 ****        63.5000  23.7500  23.7500 Du        
   2092 ****        63.5000  23.7500  24.0000 Du        
   2093 ****        63.5000  23.7500  24.2500 Du        
   2094 ****        63.5000  23.7500  24.5000 Du        
   2095 ****        63.5000  23.7500  24.7500 Du        
   2096 ****        63.5000  23.7500  25.0000 Du        
   2097 ****        63.5000  23.7500  25.2500 Du        
   2098 ****        63.5000  23.7500  25.5000 Du        
   2099 ****        63.5000  23.7500  25.7500 Du        
   2100 ****        63.5000  23.7500  26.0000 Du        
   2101 ****        63.5000  23.7500  26.2500 Du        
   2102 ****        63.5000  23.7500  26.5000 Du        
   2103 ****        63.5000  23.7500  26.7500 Du        
   2104 ****        63.5000  23.7500  27.0000 Du        
   2105 ****        63.7500  13.5000  30.0000 Du        
   2106 ****        63.7500  13.5000  30.2500 Du        
   2107 ****        63.7500  13.5000  30.5000 Du        
   2108 ****        63.7500  13.5000  30.7500 Du        
   2109 ****        63.7500  13.5000  31.0000 Du        
   2110 ****        63.7500  13.7500  29.5000 Du        
   2111 ****        63.7500  13.7500  29.7500 Du        
   2112 ****        63.7500  13.7500  30.0000 Du        
   2113 ****        63.7500  13.7500  30.2500 Du        
   2114 ****        63.7500  13.7500  30.5000 Du        
   2115 ****        63.7500  13.7500  30.7500 Du        
   2116 ****        63.7500  13.7500  31.0000 Du        
   2117 ****        63.7500  13.7500  31.2500 Du        
   2118 ****        63.7500  14.0000  29.2500 Du        
   2119 ****        63.7500  14.0000  29.5000 Du        
   2120 ****        63.7500  14.0000  29.7500 Du        
   2121 ****        63.7500  14.0000  30.0000 Du        
   2122 ****        63.7500  14.0000  30.2500 Du        
   2123 ****        63.7500  14.0000  30.5000 Du        
   2124 ****        63.7500  14.0000  30.7500 Du        
   2125 ****        63.7500  14.0000  31.0000 Du        
   2126 ****        63.7500  14.0000  31.2500 Du        
   2127 ****        63.7500  14.0000  31.5000 Du        
   2128 ****        63.7500  14.2500  29.2500 Du        
   2129 ****        63.7500  14.2500  29.5000 Du        
   2130 ****        63.7500  14.2500  29.7500 Du        
   2131 ****        63.7500  14.2500  30.0000 Du        
   2132 ****        63.7500  14.2500  30.2500 Du        
   2133 ****        63.7500  14.2500  30.5000 Du        
   2134 ****        63.7500  14.2500  30.7500 Du        
   2135 ****        63.7500  14.2500  31.0000 Du        
   2136 ****        63.7500  14.2500  31.2500 Du        
   2137 ****        63.7500  14.2500  31.5000 Du        
   2138 ****        63.7500  14.2500  31.7500 Du        
   2139 ****        63.7500  14.5000  29.5000 Du        
   2140 ****        63.7500  14.5000  29.7500 Du        
   2141 ****        63.7500  14.5000  30.0000 Du        
   2142 ****        63.7500  14.5000  30.2500 Du        
   2143 ****        63.7500  14.5000  30.5000 Du        
   2144 ****        63.7500  14.5000  30.7500 Du        
   2145 ****        63.7500  14.5000  31.0000 Du        
   2146 ****        63.7500  14.5000  31.2500 Du        
   2147 ****        63.7500  14.5000  31.5000 Du        
   2148 ****        63.7500  14.5000  31.7500 Du        
   2149 ****        63.7500  14.7500  28.7500 Du        
   2150 ****        63.7500  14.7500  29.0000 Du        
   2151 ****        63.7500  14.7500  29.2500 Du        
   2152 ****        63.7500  14.7500  29.5000 Du        
   2153 ****        63.7500  14.7500  29.7500 Du        
   2154 ****        63.7500  14.7500  30.0000 Du        
   2155 ****        63.7500  14.7500  30.2500 Du        
   2156 ****        63.7500  14.7500  30.5000 Du        
   2157 ****        63.7500  14.7500  30.7500 Du        
   2158 ****        63.7500  14.7500  31.0000 Du        
   2159 ****        63.7500  14.7500  31.2500 Du        
   2160 ****        63.7500  14.7500  31.5000 Du        
   2161 ****        63.7500  14.7500  31.7500 Du        
   2162 ****        63.7500  14.7500  32.0000 Du        
   2163 ****        63.7500  15.0000  28.7500 Du        
   2164 ****        63.7500  15.0000  29.0000 Du        
   2165 ****        63.7500  15.0000  29.2500 Du        
   2166 ****        63.7500  15.0000  29.5000 Du        
   2167 ****        63.7500  15.0000  29.7500 Du        
   2168 ****        63.7500  15.0000  30.0000 Du        
   2169 ****        63.7500  15.0000  30.2500 Du        
   2170 ****        63.7500  15.0000  30.5000 Du        
   2171 ****        63.7500  15.0000  30.7500 Du        
   2172 ****        63.7500  15.0000  31.0000 Du        
   2173 ****        63.7500  15.0000  31.2500 Du        
   2174 ****        63.7500  15.0000  31.5000 Du        
   2175 ****        63.7500  15.0000  31.7500 Du        
   2176 ****        63.7500  15.0000  32.0000 Du        
   2177 ****        63.7500  15.2500  28.0000 Du        
   2178 ****        63.7500  15.2500  28.2500 Du        
   2179 ****        63.7500  15.2500  28.5000 Du        
   2180 ****        63.7500  15.2500  28.7500 Du        
   2181 ****        63.7500  15.2500  29.0000 Du        
   2182 ****        63.7500  15.2500  29.2500 Du        
   2183 ****        63.7500  15.2500  29.5000 Du        
   2184 ****        63.7500  15.2500  29.7500 Du        
   2185 ****        63.7500  15.2500  30.0000 Du        
   2186 ****        63.7500  15.2500  30.2500 Du        
   2187 ****        63.7500  15.2500  30.5000 Du        
   2188 ****        63.7500  15.2500  30.7500 Du        
   2189 ****        63.7500  15.2500  31.0000 Du        
   2190 ****        63.7500  15.2500  31.2500 Du        
   2191 ****        63.7500  15.2500  31.5000 Du        
   2192 ****        63.7500  15.2500  31.7500 Du        
   2193 ****        63.7500  15.2500  32.0000 Du        
   2194 ****        63.7500  15.5000  27.2500 Du        
   2195 ****        63.7500  15.5000  27.5000 Du        
   2196 ****        63.7500  15.5000  27.7500 Du        
   2197 ****        63.7500  15.5000  28.0000 Du        
   2198 ****        63.7500  15.5000  28.2500 Du        
   2199 ****        63.7500  15.5000  28.5000 Du        
   2200 ****        63.7500  15.5000  28.7500 Du        
   2201 ****        63.7500  15.5000  29.0000 Du        
   2202 ****        63.7500  15.5000  29.2500 Du        
   2203 ****        63.7500  15.5000  29.5000 Du        
   2204 ****        63.7500  15.5000  29.7500 Du        
   2205 ****        63.7500  15.5000  30.0000 Du        
   2206 ****        63.7500  15.5000  30.2500 Du        
   2207 ****        63.7500  15.5000  30.5000 Du        
   2208 ****        63.7500  15.5000  30.7500 Du        
   2209 ****        63.7500  15.5000  31.0000 Du        
   2210 ****        63.7500  15.5000  31.2500 Du        
   2211 ****        63.7500  15.5000  31.5000 Du        
   2212 ****        63.7500  15.5000  31.7500 Du        
   2213 ****        63.7500  15.5000  32.0000 Du        
   2214 ****        63.7500  15.7500  27.2500 Du        
   2215 ****        63.7500  15.7500  27.5000 Du        
   2216 ****        63.7500  15.7500  27.7500 Du        
   2217 ****        63.7500  15.7500  28.0000 Du        
   2218 ****        63.7500  15.7500  28.2500 Du        
   2219 ****        63.7500  15.7500  28.5000 Du        
   2220 ****        63.7500  15.7500  28.7500 Du        
   2221 ****        63.7500  15.7500  29.0000 Du        
   2222 ****        63.7500  15.7500  29.2500 Du        
   2223 ****        63.7500  15.7500  29.5000 Du        
   2224 ****        63.7500  15.7500  29.7500 Du        
   2225 ****        63.7500  15.7500  30.0000 Du        
   2226 ****        63.7500  15.7500  30.2500 Du        
   2227 ****        63.7500  15.7500  30.5000 Du        
   2228 ****        63.7500  15.7500  30.7500 Du        
   2229 ****        63.7500  15.7500  31.0000 Du        
   2230 ****        63.7500  15.7500  31.2500 Du        
   2231 ****        63.7500  15.7500  31.5000 Du        
   2232 ****        63.7500  15.7500  31.7500 Du        
   2233 ****        63.7500  16.0000  27.5000 Du        
   2234 ****        63.7500  16.0000  27.7500 Du        
   2235 ****        63.7500  16.0000  28.0000 Du        
   2236 ****        63.7500  16.0000  28.2500 Du        
   2237 ****        63.7500  16.0000  28.5000 Du        
   2238 ****        63.7500  16.0000  28.7500 Du        
   2239 ****        63.7500  16.0000  29.0000 Du        
   2240 ****        63.7500  16.0000  29.2500 Du        
   2241 ****        63.7500  16.0000  29.5000 Du        
   2242 ****        63.7500  16.0000  29.7500 Du        
   2243 ****        63.7500  16.0000  30.0000 Du        
   2244 ****        63.7500  16.0000  30.2500 Du        
   2245 ****        63.7500  16.0000  30.5000 Du        
   2246 ****        63.7500  16.0000  30.7500 Du        
   2247 ****        63.7500  16.0000  31.0000 Du        
   2248 ****        63.7500  16.0000  31.2500 Du        
   2249 ****        63.7500  16.0000  31.5000 Du        
   2250 ****        63.7500  16.0000  31.7500 Du        
   2251 ****        63.7500  16.2500  27.7500 Du        
   2252 ****        63.7500  16.2500  28.0000 Du        
   2253 ****        63.7500  16.2500  28.2500 Du        
   2254 ****        63.7500  16.2500  28.5000 Du        
   2255 ****        63.7500  16.2500  28.7500 Du        
   2256 ****        63.7500  16.2500  29.0000 Du        
   2257 ****        63.7500  16.2500  29.2500 Du        
   2258 ****        63.7500  16.2500  29.5000 Du        
   2259 ****        63.7500  16.2500  29.7500 Du        
   2260 ****        63.7500  16.2500  30.0000 Du        
   2261 ****        63.7500  16.2500  30.2500 Du        
   2262 ****        63.7500  16.2500  30.5000 Du        
   2263 ****        63.7500  16.2500  30.7500 Du        
   2264 ****        63.7500  16.2500  31.0000 Du        
   2265 ****        63.7500  16.2500  31.2500 Du        
   2266 ****        63.7500  16.2500  31.5000 Du        
   2267 ****        63.7500  16.5000  28.0000 Du        
   2268 ****        63.7500  16.5000  28.2500 Du        
   2269 ****        63.7500  16.5000  28.5000 Du        
   2270 ****        63.7500  16.5000  28.7500 Du        
   2271 ****        63.7500  16.5000  29.0000 Du        
   2272 ****        63.7500  16.5000  29.2500 Du        
   2273 ****        63.7500  16.5000  29.5000 Du        
   2274 ****        63.7500  16.5000  29.7500 Du        
   2275 ****        63.7500  16.5000  30.0000 Du        
   2276 ****        63.7500  16.5000  30.2500 Du        
   2277 ****        63.7500  16.5000  30.5000 Du        
   2278 ****        63.7500  16.5000  30.7500 Du        
   2279 ****        63.7500  16.5000  31.0000 Du        
   2280 ****        63.7500  16.5000  31.2500 Du        
   2281 ****        63.7500  16.7500  28.2500 Du        
   2282 ****        63.7500  16.7500  28.5000 Du        
   2283 ****        63.7500  16.7500  28.7500 Du        
   2284 ****        63.7500  16.7500  29.0000 Du        
   2285 ****        63.7500  16.7500  29.2500 Du        
   2286 ****        63.7500  16.7500  29.5000 Du        
   2287 ****        63.7500  16.7500  29.7500 Du        
   2288 ****        63.7500  16.7500  30.0000 Du        
   2289 ****        63.7500  16.7500  30.2500 Du        
   2290 ****        63.7500  16.7500  30.5000 Du        
   2291 ****        63.7500  16.7500  30.7500 Du        
   2292 ****        63.7500  16.7500  31.0000 Du        
   2293 ****        63.7500  17.0000  28.7500 Du        
   2294 ****        63.7500  17.0000  29.0000 Du        
   2295 ****        63.7500  17.0000  29.2500 Du        
   2296 ****        63.7500  17.0000  29.5000 Du        
   2297 ****        63.7500  17.0000  29.7500 Du        
   2298 ****        63.7500  17.0000  30.0000 Du        
   2299 ****        63.7500  17.0000  30.2500 Du        
   2300 ****        63.7500  17.0000  30.5000 Du        
   2301 ****        63.7500  17.0000  30.7500 Du        
   2302 ****        63.7500  17.2500  28.7500 Du        
   2303 ****        63.7500  17.2500  29.0000 Du        
   2304 ****        63.7500  17.2500  29.2500 Du        
   2305 ****        63.7500  17.2500  29.5000 Du        
   2306 ****        63.7500  17.2500  29.7500 Du        
   2307 ****        63.7500  17.2500  30.0000 Du        
   2308 ****        63.7500  17.2500  30.2500 Du        
   2309 ****        63.7500  21.7500  25.2500 Du        
   2310 ****        63.7500  21.7500  25.5000 Du        
   2311 ****        63.7500  21.7500  25.7500 Du        
   2312 ****        63.7500  22.0000  25.2500 Du        
   2313 ****        63.7500  22.0000  25.5000 Du        
   2314 ****        63.7500  22.0000  25.7500 Du        
   2315 ****        63.7500  22.2500  24.7500 Du        
   2316 ****        63.7500  22.2500  25.0000 Du        
   2317 ****        63.7500  22.2500  25.2500 Du        
   2318 ****        63.7500  22.2500  25.5000 Du        
   2319 ****        63.7500  22.2500  25.7500 Du        
   2320 ****        63.7500  22.2500  26.0000 Du        
   2321 ****        63.7500  22.5000  24.5000 Du        
   2322 ****        63.7500  22.5000  24.7500 Du        
   2323 ****        63.7500  22.5000  25.0000 Du        
   2324 ****        63.7500  22.5000  25.2500 Du        
   2325 ****        63.7500  22.5000  25.5000 Du        
   2326 ****        63.7500  22.5000  25.7500 Du        
   2327 ****        63.7500  22.5000  26.0000 Du        
   2328 ****        63.7500  22.7500  24.0000 Du        
   2329 ****        63.7500  22.7500  24.2500 Du        
   2330 ****        63.7500  22.7500  24.5000 Du        
   2331 ****        63.7500  22.7500  24.7500 Du        
   2332 ****        63.7500  22.7500  25.0000 Du        
   2333 ****        63.7500  22.7500  25.2500 Du        
   2334 ****        63.7500  22.7500  25.5000 Du        
   2335 ****        63.7500  22.7500  25.7500 Du        
   2336 ****        63.7500  22.7500  26.0000 Du        
   2337 ****        63.7500  22.7500  26.2500 Du        
   2338 ****        63.7500  23.0000  23.5000 Du        
   2339 ****        63.7500  23.0000  23.7500 Du        
   2340 ****        63.7500  23.0000  24.0000 Du        
   2341 ****        63.7500  23.0000  24.2500 Du        
   2342 ****        63.7500  23.0000  24.5000 Du        
   2343 ****        63.7500  23.0000  24.7500 Du        
   2344 ****        63.7500  23.0000  25.0000 Du        
   2345 ****        63.7500  23.0000  25.2500 Du        
   2346 ****        63.7500  23.0000  25.5000 Du        
   2347 ****        63.7500  23.0000  25.7500 Du        
   2348 ****        63.7500  23.0000  26.0000 Du        
   2349 ****        63.7500  23.0000  26.2500 Du        
   2350 ****        63.7500  23.0000  26.5000 Du        
   2351 ****        63.7500  23.2500  22.2500 Du        
   2352 ****        63.7500  23.2500  22.5000 Du        
   2353 ****        63.7500  23.2500  22.7500 Du        
   2354 ****        63.7500  23.2500  23.0000 Du        
   2355 ****        63.7500  23.2500  23.2500 Du        
   2356 ****        63.7500  23.2500  23.5000 Du        
   2357 ****        63.7500  23.2500  23.7500 Du        
   2358 ****        63.7500  23.2500  24.0000 Du        
   2359 ****        63.7500  23.2500  24.2500 Du        
   2360 ****        63.7500  23.2500  24.5000 Du        
   2361 ****        63.7500  23.2500  24.7500 Du        
   2362 ****        63.7500  23.2500  25.0000 Du        
   2363 ****        63.7500  23.2500  25.2500 Du        
   2364 ****        63.7500  23.2500  25.5000 Du        
   2365 ****        63.7500  23.2500  25.7500 Du        
   2366 ****        63.7500  23.2500  26.0000 Du        
   2367 ****        63.7500  23.2500  26.2500 Du        
   2368 ****        63.7500  23.2500  26.5000 Du        
   2369 ****        63.7500  23.2500  26.7500 Du        
   2370 ****        63.7500  23.5000  21.0000 Du        
   2371 ****        63.7500  23.5000  21.2500 Du        
   2372 ****        63.7500  23.5000  21.5000 Du        
   2373 ****        63.7500  23.5000  21.7500 Du        
   2374 ****        63.7500  23.5000  22.0000 Du        
   2375 ****        63.7500  23.5000  22.2500 Du        
   2376 ****        63.7500  23.5000  22.5000 Du        
   2377 ****        63.7500  23.5000  22.7500 Du        
   2378 ****        63.7500  23.5000  23.0000 Du        
   2379 ****        63.7500  23.5000  23.2500 Du        
   2380 ****        63.7500  23.5000  23.5000 Du        
   2381 ****        63.7500  23.5000  23.7500 Du        
   2382 ****        63.7500  23.5000  24.0000 Du        
   2383 ****        63.7500  23.5000  24.2500 Du        
   2384 ****        63.7500  23.5000  24.5000 Du        
   2385 ****        63.7500  23.5000  24.7500 Du        
   2386 ****        63.7500  23.5000  25.0000 Du        
   2387 ****        63.7500  23.5000  25.2500 Du        
   2388 ****        63.7500  23.5000  25.5000 Du        
   2389 ****        63.7500  23.5000  25.7500 Du        
   2390 ****        63.7500  23.5000  26.0000 Du        
   2391 ****        63.7500  23.5000  26.2500 Du        
   2392 ****        63.7500  23.5000  26.5000 Du        
   2393 ****        63.7500  23.5000  26.7500 Du        
   2394 ****        63.7500  23.7500  20.5000 Du        
   2395 ****        63.7500  23.7500  20.7500 Du        
   2396 ****        63.7500  23.7500  21.0000 Du        
   2397 ****        63.7500  23.7500  21.2500 Du        
   2398 ****        63.7500  23.7500  21.5000 Du        
   2399 ****        63.7500  23.7500  21.7500 Du        
   2400 ****        63.7500  23.7500  22.0000 Du        
   2401 ****        63.7500  23.7500  22.2500 Du        
   2402 ****        63.7500  23.7500  22.5000 Du        
   2403 ****        63.7500  23.7500  22.7500 Du        
   2404 ****        63.7500  23.7500  23.0000 Du        
   2405 ****        63.7500  23.7500  23.2500 Du        
   2406 ****        63.7500  23.7500  23.5000 Du        
   2407 ****        63.7500  23.7500  23.7500 Du        
   2408 ****        63.7500  23.7500  24.0000 Du        
   2409 ****        63.7500  23.7500  24.2500 Du        
   2410 ****        63.7500  23.7500  24.5000 Du        
   2411 ****        63.7500  23.7500  24.7500 Du        
   2412 ****        63.7500  23.7500  25.0000 Du        
   2413 ****        63.7500  23.7500  25.2500 Du        
   2414 ****        63.7500  23.7500  25.5000 Du        
   2415 ****        63.7500  23.7500  25.7500 Du        
   2416 ****        63.7500  23.7500  26.0000 Du        
   2417 ****        63.7500  23.7500  26.2500 Du        
   2418 ****        63.7500  23.7500  26.5000 Du        
   2419 ****        63.7500  23.7500  26.7500 Du        
   2420 ****        63.7500  23.7500  27.0000 Du        
   2421 ****        64.0000  13.5000  30.2500 Du        
   2422 ****        64.0000  13.5000  30.5000 Du        
   2423 ****        64.0000  13.5000  30.7500 Du        
   2424 ****        64.0000  13.5000  31.0000 Du        
   2425 ****        64.0000  13.7500  29.7500 Du        
   2426 ****        64.0000  13.7500  30.0000 Du        
   2427 ****        64.0000  13.7500  30.2500 Du        
   2428 ****        64.0000  13.7500  30.5000 Du        
   2429 ****        64.0000  13.7500  30.7500 Du        
   2430 ****        64.0000  13.7500  31.0000 Du        
   2431 ****        64.0000  13.7500  31.2500 Du        
   2432 ****        64.0000  13.7500  31.5000 Du        
   2433 ****        64.0000  14.0000  29.7500 Du        
   2434 ****        64.0000  14.0000  30.0000 Du        
   2435 ****        64.0000  14.0000  30.2500 Du        
   2436 ****        64.0000  14.0000  30.5000 Du        
   2437 ****        64.0000  14.0000  30.7500 Du        
   2438 ****        64.0000  14.0000  31.0000 Du        
   2439 ****        64.0000  14.0000  31.2500 Du        
   2440 ****        64.0000  14.0000  31.5000 Du        
   2441 ****        64.0000  14.0000  31.7500 Du        
   2442 ****        64.0000  14.2500  29.2500 Du        
   2443 ****        64.0000  14.2500  29.5000 Du        
   2444 ****        64.0000  14.2500  29.7500 Du        
   2445 ****        64.0000  14.2500  30.0000 Du        
   2446 ****        64.0000  14.2500  30.2500 Du        
   2447 ****        64.0000  14.2500  30.5000 Du        
   2448 ****        64.0000  14.2500  30.7500 Du        
   2449 ****        64.0000  14.2500  31.0000 Du        
   2450 ****        64.0000  14.2500  31.2500 Du        
   2451 ****        64.0000  14.2500  31.5000 Du        
   2452 ****        64.0000  14.2500  31.7500 Du        
   2453 ****        64.0000  14.5000  29.5000 Du        
   2454 ****        64.0000  14.5000  29.7500 Du        
   2455 ****        64.0000  14.5000  30.0000 Du        
   2456 ****        64.0000  14.5000  30.2500 Du        
   2457 ****        64.0000  14.5000  30.5000 Du        
   2458 ****        64.0000  14.5000  30.7500 Du        
   2459 ****        64.0000  14.5000  31.0000 Du        
   2460 ****        64.0000  14.5000  31.2500 Du        
   2461 ****        64.0000  14.5000  31.5000 Du        
   2462 ****        64.0000  14.5000  31.7500 Du        
   2463 ****        64.0000  14.5000  32.0000 Du        
   2464 ****        64.0000  14.7500  29.2500 Du        
   2465 ****        64.0000  14.7500  29.5000 Du        
   2466 ****        64.0000  14.7500  29.7500 Du        
   2467 ****        64.0000  14.7500  30.0000 Du        
   2468 ****        64.0000  14.7500  30.2500 Du        
   2469 ****        64.0000  14.7500  30.5000 Du        
   2470 ****        64.0000  14.7500  30.7500 Du        
   2471 ****        64.0000  14.7500  31.0000 Du        
   2472 ****        64.0000  14.7500  31.2500 Du        
   2473 ****        64.0000  14.7500  31.5000 Du        
   2474 ****        64.0000  14.7500  31.7500 Du        
   2475 ****        64.0000  14.7500  32.0000 Du        
   2476 ****        64.0000  15.0000  29.0000 Du        
   2477 ****        64.0000  15.0000  29.2500 Du        
   2478 ****        64.0000  15.0000  29.5000 Du        
   2479 ****        64.0000  15.0000  29.7500 Du        
   2480 ****        64.0000  15.0000  30.0000 Du        
   2481 ****        64.0000  15.0000  30.2500 Du        
   2482 ****        64.0000  15.0000  30.5000 Du        
   2483 ****        64.0000  15.0000  30.7500 Du        
   2484 ****        64.0000  15.0000  31.0000 Du        
   2485 ****        64.0000  15.0000  31.2500 Du        
   2486 ****        64.0000  15.0000  31.5000 Du        
   2487 ****        64.0000  15.0000  31.7500 Du        
   2488 ****        64.0000  15.0000  32.0000 Du        
   2489 ****        64.0000  15.2500  28.2500 Du        
   2490 ****        64.0000  15.2500  28.7500 Du        
   2491 ****        64.0000  15.2500  29.0000 Du        
   2492 ****        64.0000  15.2500  29.2500 Du        
   2493 ****        64.0000  15.2500  29.5000 Du        
   2494 ****        64.0000  15.2500  29.7500 Du        
   2495 ****        64.0000  15.2500  30.0000 Du        
   2496 ****        64.0000  15.2500  30.2500 Du        
   2497 ****        64.0000  15.2500  30.5000 Du        
   2498 ****        64.0000  15.2500  30.7500 Du        
   2499 ****        64.0000  15.2500  31.0000 Du        
   2500 ****        64.0000  15.2500  31.2500 Du        
   2501 ****        64.0000  15.2500  31.5000 Du        
   2502 ****        64.0000  15.2500  31.7500 Du        
   2503 ****        64.0000  15.2500  32.0000 Du        
   2504 ****        64.0000  15.5000  27.2500 Du        
   2505 ****        64.0000  15.5000  27.7500 Du        
   2506 ****        64.0000  15.5000  28.0000 Du        
   2507 ****        64.0000  15.5000  28.2500 Du        
   2508 ****        64.0000  15.5000  28.5000 Du        
   2509 ****        64.0000  15.5000  28.7500 Du        
   2510 ****        64.0000  15.5000  29.0000 Du        
   2511 ****        64.0000  15.5000  29.2500 Du        
   2512 ****        64.0000  15.5000  29.5000 Du        
   2513 ****        64.0000  15.5000  29.7500 Du        
   2514 ****        64.0000  15.5000  30.0000 Du        
   2515 ****        64.0000  15.5000  30.2500 Du        
   2516 ****        64.0000  15.5000  30.5000 Du        
   2517 ****        64.0000  15.5000  30.7500 Du        
   2518 ****        64.0000  15.5000  31.0000 Du        
   2519 ****        64.0000  15.5000  31.2500 Du        
   2520 ****        64.0000  15.5000  31.5000 Du        
   2521 ****        64.0000  15.5000  31.7500 Du        
   2522 ****        64.0000  15.5000  32.0000 Du        
   2523 ****        64.0000  15.7500  26.7500 Du        
   2524 ****        64.0000  15.7500  27.0000 Du        
   2525 ****        64.0000  15.7500  27.2500 Du        
   2526 ****        64.0000  15.7500  27.5000 Du        
   2527 ****        64.0000  15.7500  27.7500 Du        
   2528 ****        64.0000  15.7500  28.0000 Du        
   2529 ****        64.0000  15.7500  28.2500 Du        
   2530 ****        64.0000  15.7500  28.5000 Du        
   2531 ****        64.0000  15.7500  28.7500 Du        
   2532 ****        64.0000  15.7500  29.0000 Du        
   2533 ****        64.0000  15.7500  29.2500 Du        
   2534 ****        64.0000  15.7500  29.5000 Du        
   2535 ****        64.0000  15.7500  29.7500 Du        
   2536 ****        64.0000  15.7500  30.0000 Du        
   2537 ****        64.0000  15.7500  30.2500 Du        
   2538 ****        64.0000  15.7500  30.5000 Du        
   2539 ****        64.0000  15.7500  30.7500 Du        
   2540 ****        64.0000  15.7500  31.0000 Du        
   2541 ****        64.0000  15.7500  31.2500 Du        
   2542 ****        64.0000  15.7500  31.5000 Du        
   2543 ****        64.0000  15.7500  31.7500 Du        
   2544 ****        64.0000  16.0000  26.7500 Du        
   2545 ****        64.0000  16.0000  27.0000 Du        
   2546 ****        64.0000  16.0000  27.2500 Du        
   2547 ****        64.0000  16.0000  27.5000 Du        
   2548 ****        64.0000  16.0000  27.7500 Du        
   2549 ****        64.0000  16.0000  28.0000 Du        
   2550 ****        64.0000  16.0000  28.2500 Du        
   2551 ****        64.0000  16.0000  28.5000 Du        
   2552 ****        64.0000  16.0000  28.7500 Du        
   2553 ****        64.0000  16.0000  29.0000 Du        
   2554 ****        64.0000  16.0000  29.2500 Du        
   2555 ****        64.0000  16.0000  29.5000 Du        
   2556 ****        64.0000  16.0000  29.7500 Du        
   2557 ****        64.0000  16.0000  30.0000 Du        
   2558 ****        64.0000  16.0000  30.2500 Du        
   2559 ****        64.0000  16.0000  30.5000 Du        
   2560 ****        64.0000  16.0000  30.7500 Du        
   2561 ****        64.0000  16.0000  31.0000 Du        
   2562 ****        64.0000  16.0000  31.2500 Du        
   2563 ****        64.0000  16.0000  31.5000 Du        
   2564 ****        64.0000  16.0000  31.7500 Du        
   2565 ****        64.0000  16.2500  27.0000 Du        
   2566 ****        64.0000  16.2500  27.2500 Du        
   2567 ****        64.0000  16.2500  27.5000 Du        
   2568 ****        64.0000  16.2500  27.7500 Du        
   2569 ****        64.0000  16.2500  28.0000 Du        
   2570 ****        64.0000  16.2500  28.2500 Du        
   2571 ****        64.0000  16.2500  28.5000 Du        
   2572 ****        64.0000  16.2500  28.7500 Du        
   2573 ****        64.0000  16.2500  29.0000 Du        
   2574 ****        64.0000  16.2500  29.2500 Du        
   2575 ****        64.0000  16.2500  29.5000 Du        
   2576 ****        64.0000  16.2500  29.7500 Du        
   2577 ****        64.0000  16.2500  30.0000 Du        
   2578 ****        64.0000  16.2500  30.2500 Du        
   2579 ****        64.0000  16.2500  30.5000 Du        
   2580 ****        64.0000  16.2500  30.7500 Du        
   2581 ****        64.0000  16.2500  31.0000 Du        
   2582 ****        64.0000  16.2500  31.2500 Du        
   2583 ****        64.0000  16.2500  31.5000 Du        
   2584 ****        64.0000  16.2500  31.7500 Du        
   2585 ****        64.0000  16.5000  27.7500 Du        
   2586 ****        64.0000  16.5000  28.0000 Du        
   2587 ****        64.0000  16.5000  28.2500 Du        
   2588 ****        64.0000  16.5000  28.5000 Du        
   2589 ****        64.0000  16.5000  28.7500 Du        
   2590 ****        64.0000  16.5000  29.0000 Du        
   2591 ****        64.0000  16.5000  29.2500 Du        
   2592 ****        64.0000  16.5000  29.5000 Du        
   2593 ****        64.0000  16.5000  29.7500 Du        
   2594 ****        64.0000  16.5000  30.0000 Du        
   2595 ****        64.0000  16.5000  30.2500 Du        
   2596 ****        64.0000  16.5000  30.5000 Du        
   2597 ****        64.0000  16.5000  30.7500 Du        
   2598 ****        64.0000  16.5000  31.0000 Du        
   2599 ****        64.0000  16.5000  31.2500 Du        
   2600 ****        64.0000  16.5000  31.5000 Du        
   2601 ****        64.0000  16.7500  28.0000 Du        
   2602 ****        64.0000  16.7500  28.2500 Du        
   2603 ****        64.0000  16.7500  28.5000 Du        
   2604 ****        64.0000  16.7500  28.7500 Du        
   2605 ****        64.0000  16.7500  29.0000 Du        
   2606 ****        64.0000  16.7500  29.2500 Du        
   2607 ****        64.0000  16.7500  29.5000 Du        
   2608 ****        64.0000  16.7500  29.7500 Du        
   2609 ****        64.0000  16.7500  30.0000 Du        
   2610 ****        64.0000  16.7500  30.2500 Du        
   2611 ****        64.0000  16.7500  30.5000 Du        
   2612 ****        64.0000  16.7500  30.7500 Du        
   2613 ****        64.0000  16.7500  31.0000 Du        
   2614 ****        64.0000  16.7500  31.2500 Du        
   2615 ****        64.0000  16.7500  31.5000 Du        
   2616 ****        64.0000  17.0000  28.2500 Du        
   2617 ****        64.0000  17.0000  28.5000 Du        
   2618 ****        64.0000  17.0000  28.7500 Du        
   2619 ****        64.0000  17.0000  29.0000 Du        
   2620 ****        64.0000  17.0000  29.2500 Du        
   2621 ****        64.0000  17.0000  29.5000 Du        
   2622 ****        64.0000  17.0000  29.7500 Du        
   2623 ****        64.0000  17.0000  30.0000 Du        
   2624 ****        64.0000  17.0000  30.2500 Du        
   2625 ****        64.0000  17.0000  30.5000 Du        
   2626 ****        64.0000  17.0000  30.7500 Du        
   2627 ****        64.0000  17.0000  31.0000 Du        
   2628 ****        64.0000  17.0000  31.2500 Du        
   2629 ****        64.0000  17.2500  28.5000 Du        
   2630 ****        64.0000  17.2500  28.7500 Du        
   2631 ****        64.0000  17.2500  29.0000 Du        
   2632 ****        64.0000  17.2500  29.2500 Du        
   2633 ****        64.0000  17.2500  29.5000 Du        
   2634 ****        64.0000  17.2500  29.7500 Du        
   2635 ****        64.0000  17.2500  30.0000 Du        
   2636 ****        64.0000  17.2500  30.2500 Du        
   2637 ****        64.0000  17.2500  30.5000 Du        
   2638 ****        64.0000  17.2500  30.7500 Du        
   2639 ****        64.0000  17.2500  31.0000 Du        
   2640 ****        64.0000  17.2500  31.2500 Du        
   2641 ****        64.0000  17.5000  29.0000 Du        
   2642 ****        64.0000  17.5000  29.2500 Du        
   2643 ****        64.0000  17.5000  29.5000 Du        
   2644 ****        64.0000  17.5000  29.7500 Du        
   2645 ****        64.0000  17.5000  30.0000 Du        
   2646 ****        64.0000  17.5000  30.2500 Du        
   2647 ****        64.0000  17.5000  30.5000 Du        
   2648 ****        64.0000  17.5000  30.7500 Du        
   2649 ****        64.0000  17.5000  31.0000 Du        
   2650 ****        64.0000  21.5000  25.7500 Du        
   2651 ****        64.0000  21.7500  25.2500 Du        
   2652 ****        64.0000  21.7500  25.5000 Du        
   2653 ****        64.0000  21.7500  25.7500 Du        
   2654 ****        64.0000  22.0000  25.0000 Du        
   2655 ****        64.0000  22.0000  25.2500 Du        
   2656 ****        64.0000  22.0000  25.5000 Du        
   2657 ****        64.0000  22.0000  25.7500 Du        
   2658 ****        64.0000  22.0000  26.0000 Du        
   2659 ****        64.0000  22.2500  24.7500 Du        
   2660 ****        64.0000  22.2500  25.0000 Du        
   2661 ****        64.0000  22.2500  25.2500 Du        
   2662 ****        64.0000  22.2500  25.5000 Du        
   2663 ****        64.0000  22.2500  25.7500 Du        
   2664 ****        64.0000  22.2500  26.0000 Du        
   2665 ****        64.0000  22.5000  24.5000 Du        
   2666 ****        64.0000  22.5000  24.7500 Du        
   2667 ****        64.0000  22.5000  25.0000 Du        
   2668 ****        64.0000  22.5000  25.2500 Du        
   2669 ****        64.0000  22.5000  25.5000 Du        
   2670 ****        64.0000  22.5000  25.7500 Du        
   2671 ****        64.0000  22.5000  26.0000 Du        
   2672 ****        64.0000  22.5000  26.2500 Du        
   2673 ****        64.0000  22.7500  24.0000 Du        
   2674 ****        64.0000  22.7500  24.2500 Du        
   2675 ****        64.0000  22.7500  24.5000 Du        
   2676 ****        64.0000  22.7500  24.7500 Du        
   2677 ****        64.0000  22.7500  25.0000 Du        
   2678 ****        64.0000  22.7500  25.2500 Du        
   2679 ****        64.0000  22.7500  25.5000 Du        
   2680 ****        64.0000  22.7500  25.7500 Du        
   2681 ****        64.0000  22.7500  26.0000 Du        
   2682 ****        64.0000  22.7500  26.2500 Du        
   2683 ****        64.0000  23.0000  23.0000 Du        
   2684 ****        64.0000  23.0000  23.2500 Du        
   2685 ****        64.0000  23.0000  23.5000 Du        
   2686 ****        64.0000  23.0000  23.7500 Du        
   2687 ****        64.0000  23.0000  24.0000 Du        
   2688 ****        64.0000  23.0000  24.2500 Du        
   2689 ****        64.0000  23.0000  24.5000 Du        
   2690 ****        64.0000  23.0000  24.7500 Du        
   2691 ****        64.0000  23.0000  25.0000 Du        
   2692 ****        64.0000  23.0000  25.2500 Du        
   2693 ****        64.0000  23.0000  25.5000 Du        
   2694 ****        64.0000  23.0000  25.7500 Du        
   2695 ****        64.0000  23.0000  26.0000 Du        
   2696 ****        64.0000  23.0000  26.2500 Du        
   2697 ****        64.0000  23.0000  26.5000 Du        
   2698 ****        64.0000  23.2500  22.0000 Du        
   2699 ****        64.0000  23.2500  22.2500 Du        
   2700 ****        64.0000  23.2500  22.5000 Du        
   2701 ****        64.0000  23.2500  22.7500 Du        
   2702 ****        64.0000  23.2500  23.0000 Du        
   2703 ****        64.0000  23.2500  23.2500 Du        
   2704 ****        64.0000  23.2500  23.5000 Du        
   2705 ****        64.0000  23.2500  23.7500 Du        
   2706 ****        64.0000  23.2500  24.0000 Du        
   2707 ****        64.0000  23.2500  24.2500 Du        
   2708 ****        64.0000  23.2500  24.5000 Du        
   2709 ****        64.0000  23.2500  24.7500 Du        
   2710 ****        64.0000  23.2500  25.0000 Du        
   2711 ****        64.0000  23.2500  25.2500 Du        
   2712 ****        64.0000  23.2500  25.5000 Du        
   2713 ****        64.0000  23.2500  25.7500 Du        
   2714 ****        64.0000  23.2500  26.0000 Du        
   2715 ****        64.0000  23.2500  26.2500 Du        
   2716 ****        64.0000  23.2500  26.5000 Du        
   2717 ****        64.0000  23.2500  26.7500 Du        
   2718 ****        64.0000  23.5000  21.2500 Du        
   2719 ****        64.0000  23.5000  21.5000 Du        
   2720 ****        64.0000  23.5000  21.7500 Du        
   2721 ****        64.0000  23.5000  22.0000 Du        
   2722 ****        64.0000  23.5000  22.2500 Du        
   2723 ****        64.0000  23.5000  22.5000 Du        
   2724 ****        64.0000  23.5000  22.7500 Du        
   2725 ****        64.0000  23.5000  23.0000 Du        
   2726 ****        64.0000  23.5000  23.2500 Du        
   2727 ****        64.0000  23.5000  23.5000 Du        
   2728 ****        64.0000  23.5000  23.7500 Du        
   2729 ****        64.0000  23.5000  24.0000 Du        
   2730 ****        64.0000  23.5000  24.2500 Du        
   2731 ****        64.0000  23.5000  24.5000 Du        
   2732 ****        64.0000  23.5000  24.7500 Du        
   2733 ****        64.0000  23.5000  25.0000 Du        
   2734 ****        64.0000  23.5000  25.2500 Du        
   2735 ****        64.0000  23.5000  25.5000 Du        
   2736 ****        64.0000  23.5000  25.7500 Du        
   2737 ****        64.0000  23.5000  26.0000 Du        
   2738 ****        64.0000  23.5000  26.2500 Du        
   2739 ****        64.0000  23.5000  26.5000 Du        
   2740 ****        64.0000  23.5000  26.7500 Du        
   2741 ****        64.0000  23.7500  20.7500 Du        
   2742 ****        64.0000  23.7500  21.0000 Du        
   2743 ****        64.0000  23.7500  21.2500 Du        
   2744 ****        64.0000  23.7500  21.5000 Du        
   2745 ****        64.0000  23.7500  21.7500 Du        
   2746 ****        64.0000  23.7500  22.0000 Du        
   2747 ****        64.0000  23.7500  22.2500 Du        
   2748 ****        64.0000  23.7500  22.5000 Du        
   2749 ****        64.0000  23.7500  22.7500 Du        
   2750 ****        64.0000  23.7500  23.0000 Du        
   2751 ****        64.0000  23.7500  23.2500 Du        
   2752 ****        64.0000  23.7500  23.5000 Du        
   2753 ****        64.0000  23.7500  23.7500 Du        
   2754 ****        64.0000  23.7500  24.0000 Du        
   2755 ****        64.0000  23.7500  24.2500 Du        
   2756 ****        64.0000  23.7500  24.5000 Du        
   2757 ****        64.0000  23.7500  24.7500 Du        
   2758 ****        64.0000  23.7500  25.0000 Du        
   2759 ****        64.0000  23.7500  25.2500 Du        
   2760 ****        64.0000  23.7500  25.5000 Du        
   2761 ****        64.0000  23.7500  25.7500 Du        
   2762 ****        64.0000  23.7500  26.0000 Du        
   2763 ****        64.0000  23.7500  26.2500 Du        
   2764 ****        64.0000  23.7500  26.5000 Du        
   2765 ****        64.0000  23.7500  26.7500 Du        
   2766 ****        64.0000  23.7500  27.0000 Du        
   2767 ****        64.2500  13.5000  30.5000 Du        
   2768 ****        64.2500  13.5000  30.7500 Du        
   2769 ****        64.2500  13.5000  31.0000 Du        
   2770 ****        64.2500  13.7500  30.0000 Du        
   2771 ****        64.2500  13.7500  30.2500 Du        
   2772 ****        64.2500  13.7500  30.5000 Du        
   2773 ****        64.2500  13.7500  30.7500 Du        
   2774 ****        64.2500  13.7500  31.0000 Du        
   2775 ****        64.2500  13.7500  31.2500 Du        
   2776 ****        64.2500  13.7500  31.5000 Du        
   2777 ****        64.2500  14.0000  29.7500 Du        
   2778 ****        64.2500  14.0000  30.0000 Du        
   2779 ****        64.2500  14.0000  30.2500 Du        
   2780 ****        64.2500  14.0000  30.5000 Du        
   2781 ****        64.2500  14.0000  30.7500 Du        
   2782 ****        64.2500  14.0000  31.0000 Du        
   2783 ****        64.2500  14.0000  31.2500 Du        
   2784 ****        64.2500  14.0000  31.5000 Du        
   2785 ****        64.2500  14.0000  31.7500 Du        
   2786 ****        64.2500  14.2500  29.7500 Du        
   2787 ****        64.2500  14.2500  30.0000 Du        
   2788 ****        64.2500  14.2500  30.2500 Du        
   2789 ****        64.2500  14.2500  30.5000 Du        
   2790 ****        64.2500  14.2500  30.7500 Du        
   2791 ****        64.2500  14.2500  31.0000 Du        
   2792 ****        64.2500  14.2500  31.2500 Du        
   2793 ****        64.2500  14.2500  31.5000 Du        
   2794 ****        64.2500  14.2500  31.7500 Du        
   2795 ****        64.2500  14.2500  32.0000 Du        
   2796 ****        64.2500  14.5000  29.5000 Du        
   2797 ****        64.2500  14.5000  29.7500 Du        
   2798 ****        64.2500  14.5000  30.0000 Du        
   2799 ****        64.2500  14.5000  30.2500 Du        
   2800 ****        64.2500  14.5000  30.5000 Du        
   2801 ****        64.2500  14.5000  30.7500 Du        
   2802 ****        64.2500  14.5000  31.0000 Du        
   2803 ****        64.2500  14.5000  31.2500 Du        
   2804 ****        64.2500  14.5000  31.5000 Du        
   2805 ****        64.2500  14.5000  31.7500 Du        
   2806 ****        64.2500  14.5000  32.0000 Du        
   2807 ****        64.2500  14.7500  29.5000 Du        
   2808 ****        64.2500  14.7500  29.7500 Du        
   2809 ****        64.2500  14.7500  30.0000 Du        
   2810 ****        64.2500  14.7500  30.2500 Du        
   2811 ****        64.2500  14.7500  30.5000 Du        
   2812 ****        64.2500  14.7500  30.7500 Du        
   2813 ****        64.2500  14.7500  31.0000 Du        
   2814 ****        64.2500  14.7500  31.2500 Du        
   2815 ****        64.2500  14.7500  31.5000 Du        
   2816 ****        64.2500  14.7500  31.7500 Du        
   2817 ****        64.2500  14.7500  32.0000 Du        
   2818 ****        64.2500  15.0000  29.0000 Du        
   2819 ****        64.2500  15.0000  29.2500 Du        
   2820 ****        64.2500  15.0000  29.5000 Du        
   2821 ****        64.2500  15.0000  29.7500 Du        
   2822 ****        64.2500  15.0000  30.0000 Du        
   2823 ****        64.2500  15.0000  30.2500 Du        
   2824 ****        64.2500  15.0000  30.5000 Du        
   2825 ****        64.2500  15.0000  30.7500 Du        
   2826 ****        64.2500  15.0000  31.0000 Du        
   2827 ****        64.2500  15.0000  31.2500 Du        
   2828 ****        64.2500  15.0000  31.5000 Du        
   2829 ****        64.2500  15.0000  31.7500 Du        
   2830 ****        64.2500  15.0000  32.0000 Du        
   2831 ****        64.2500  15.2500  29.0000 Du        
   2832 ****        64.2500  15.2500  29.2500 Du        
   2833 ****        64.2500  15.2500  29.5000 Du        
   2834 ****        64.2500  15.2500  29.7500 Du        
   2835 ****        64.2500  15.2500  30.0000 Du        
   2836 ****        64.2500  15.2500  30.2500 Du        
   2837 ****        64.2500  15.2500  30.5000 Du        
   2838 ****        64.2500  15.2500  30.7500 Du        
   2839 ****        64.2500  15.2500  31.0000 Du        
   2840 ****        64.2500  15.2500  31.2500 Du        
   2841 ****        64.2500  15.2500  31.5000 Du        
   2842 ****        64.2500  15.2500  31.7500 Du        
   2843 ****        64.2500  15.2500  32.0000 Du        
   2844 ****        64.2500  15.5000  28.7500 Du        
   2845 ****        64.2500  15.5000  29.0000 Du        
   2846 ****        64.2500  15.5000  29.2500 Du        
   2847 ****        64.2500  15.5000  29.5000 Du        
   2848 ****        64.2500  15.5000  29.7500 Du        
   2849 ****        64.2500  15.5000  30.0000 Du        
   2850 ****        64.2500  15.5000  30.2500 Du        
   2851 ****        64.2500  15.5000  30.5000 Du        
   2852 ****        64.2500  15.5000  30.7500 Du        
   2853 ****        64.2500  15.5000  31.0000 Du        
   2854 ****        64.2500  15.5000  31.2500 Du        
   2855 ****        64.2500  15.5000  31.5000 Du        
   2856 ****        64.2500  15.5000  31.7500 Du        
   2857 ****        64.2500  15.7500  26.7500 Du        
   2858 ****        64.2500  15.7500  27.0000 Du        
   2859 ****        64.2500  15.7500  27.2500 Du        
   2860 ****        64.2500  15.7500  27.5000 Du        
   2861 ****        64.2500  15.7500  27.7500 Du        
   2862 ****        64.2500  15.7500  28.0000 Du        
   2863 ****        64.2500  15.7500  28.2500 Du        
   2864 ****        64.2500  15.7500  28.5000 Du        
   2865 ****        64.2500  15.7500  28.7500 Du        
   2866 ****        64.2500  15.7500  29.0000 Du        
   2867 ****        64.2500  15.7500  29.2500 Du        
   2868 ****        64.2500  15.7500  29.5000 Du        
   2869 ****        64.2500  15.7500  29.7500 Du        
   2870 ****        64.2500  15.7500  30.0000 Du        
   2871 ****        64.2500  15.7500  30.2500 Du        
   2872 ****        64.2500  15.7500  30.5000 Du        
   2873 ****        64.2500  15.7500  30.7500 Du        
   2874 ****        64.2500  15.7500  31.0000 Du        
   2875 ****        64.2500  15.7500  31.2500 Du        
   2876 ****        64.2500  15.7500  31.5000 Du        
   2877 ****        64.2500  15.7500  31.7500 Du        
   2878 ****        64.2500  16.0000  26.5000 Du        
   2879 ****        64.2500  16.0000  26.7500 Du        
   2880 ****        64.2500  16.0000  27.0000 Du        
   2881 ****        64.2500  16.0000  27.2500 Du        
   2882 ****        64.2500  16.0000  27.5000 Du        
   2883 ****        64.2500  16.0000  27.7500 Du        
   2884 ****        64.2500  16.0000  28.0000 Du        
   2885 ****        64.2500  16.0000  28.2500 Du        
   2886 ****        64.2500  16.0000  28.5000 Du        
   2887 ****        64.2500  16.0000  28.7500 Du        
   2888 ****        64.2500  16.0000  29.0000 Du        
   2889 ****        64.2500  16.0000  29.2500 Du        
   2890 ****        64.2500  16.0000  29.5000 Du        
   2891 ****        64.2500  16.0000  29.7500 Du        
   2892 ****        64.2500  16.0000  30.0000 Du        
   2893 ****        64.2500  16.0000  30.2500 Du        
   2894 ****        64.2500  16.0000  30.5000 Du        
   2895 ****        64.2500  16.0000  30.7500 Du        
   2896 ****        64.2500  16.0000  31.0000 Du        
   2897 ****        64.2500  16.0000  31.2500 Du        
   2898 ****        64.2500  16.0000  31.5000 Du        
   2899 ****        64.2500  16.0000  31.7500 Du        
   2900 ****        64.2500  16.2500  26.5000 Du        
   2901 ****        64.2500  16.2500  26.7500 Du        
   2902 ****        64.2500  16.2500  27.0000 Du        
   2903 ****        64.2500  16.2500  27.2500 Du        
   2904 ****        64.2500  16.2500  27.5000 Du        
   2905 ****        64.2500  16.2500  27.7500 Du        
   2906 ****        64.2500  16.2500  28.0000 Du        
   2907 ****        64.2500  16.2500  28.2500 Du        
   2908 ****        64.2500  16.2500  28.5000 Du        
   2909 ****        64.2500  16.2500  28.7500 Du        
   2910 ****        64.2500  16.2500  29.0000 Du        
   2911 ****        64.2500  16.2500  29.2500 Du        
   2912 ****        64.2500  16.2500  29.5000 Du        
   2913 ****        64.2500  16.2500  29.7500 Du        
   2914 ****        64.2500  16.2500  30.0000 Du        
   2915 ****        64.2500  16.2500  30.2500 Du        
   2916 ****        64.2500  16.2500  30.5000 Du        
   2917 ****        64.2500  16.2500  30.7500 Du        
   2918 ****        64.2500  16.2500  31.0000 Du        
   2919 ****        64.2500  16.2500  31.2500 Du        
   2920 ****        64.2500  16.2500  31.5000 Du        
   2921 ****        64.2500  16.5000  26.7500 Du        
   2922 ****        64.2500  16.5000  27.0000 Du        
   2923 ****        64.2500  16.5000  27.2500 Du        
   2924 ****        64.2500  16.5000  27.5000 Du        
   2925 ****        64.2500  16.5000  27.7500 Du        
   2926 ****        64.2500  16.5000  28.0000 Du        
   2927 ****        64.2500  16.5000  28.2500 Du        
   2928 ****        64.2500  16.5000  28.5000 Du        
   2929 ****        64.2500  16.5000  28.7500 Du        
   2930 ****        64.2500  16.5000  29.0000 Du        
   2931 ****        64.2500  16.5000  29.2500 Du        
   2932 ****        64.2500  16.5000  29.5000 Du        
   2933 ****        64.2500  16.5000  29.7500 Du        
   2934 ****        64.2500  16.5000  30.0000 Du        
   2935 ****        64.2500  16.5000  30.2500 Du        
   2936 ****        64.2500  16.5000  30.5000 Du        
   2937 ****        64.2500  16.5000  30.7500 Du        
   2938 ****        64.2500  16.5000  31.0000 Du        
   2939 ****        64.2500  16.5000  31.2500 Du        
   2940 ****        64.2500  16.5000  31.5000 Du        
   2941 ****        64.2500  16.7500  27.5000 Du        
   2942 ****        64.2500  16.7500  27.7500 Du        
   2943 ****        64.2500  16.7500  28.0000 Du        
   2944 ****        64.2500  16.7500  28.2500 Du        
   2945 ****        64.2500  16.7500  28.5000 Du        
   2946 ****        64.2500  16.7500  28.7500 Du        
   2947 ****        64.2500  16.7500  29.0000 Du        
   2948 ****        64.2500  16.7500  29.2500 Du        
   2949 ****        64.2500  16.7500  29.5000 Du        
   2950 ****        64.2500  16.7500  29.7500 Du        
   2951 ****        64.2500  16.7500  30.0000 Du        
   2952 ****        64.2500  16.7500  30.2500 Du        
   2953 ****        64.2500  16.7500  30.5000 Du        
   2954 ****        64.2500  16.7500  30.7500 Du        
   2955 ****        64.2500  16.7500  31.0000 Du        
   2956 ****        64.2500  16.7500  31.2500 Du        
   2957 ****        64.2500  16.7500  31.5000 Du        
   2958 ****        64.2500  17.0000  27.7500 Du        
   2959 ****        64.2500  17.0000  28.0000 Du        
   2960 ****        64.2500  17.0000  28.2500 Du        
   2961 ****        64.2500  17.0000  28.5000 Du        
   2962 ****        64.2500  17.0000  28.7500 Du        
   2963 ****        64.2500  17.0000  29.0000 Du        
   2964 ****        64.2500  17.0000  29.2500 Du        
   2965 ****        64.2500  17.0000  29.5000 Du        
   2966 ****        64.2500  17.0000  29.7500 Du        
   2967 ****        64.2500  17.0000  30.0000 Du        
   2968 ****        64.2500  17.0000  30.2500 Du        
   2969 ****        64.2500  17.0000  30.5000 Du        
   2970 ****        64.2500  17.0000  30.7500 Du        
   2971 ****        64.2500  17.0000  31.0000 Du        
   2972 ****        64.2500  17.0000  31.2500 Du        
   2973 ****        64.2500  17.0000  31.5000 Du        
   2974 ****        64.2500  17.2500  28.0000 Du        
   2975 ****        64.2500  17.2500  28.2500 Du        
   2976 ****        64.2500  17.2500  28.5000 Du        
   2977 ****        64.2500  17.2500  28.7500 Du        
   2978 ****        64.2500  17.2500  29.0000 Du        
   2979 ****        64.2500  17.2500  29.2500 Du        
   2980 ****        64.2500  17.2500  29.5000 Du        
   2981 ****        64.2500  17.2500  29.7500 Du        
   2982 ****        64.2500  17.2500  30.0000 Du        
   2983 ****        64.2500  17.2500  30.2500 Du        
   2984 ****        64.2500  17.2500  30.5000 Du        
   2985 ****        64.2500  17.2500  30.7500 Du        
   2986 ****        64.2500  17.2500  31.0000 Du        
   2987 ****        64.2500  17.2500  31.2500 Du        
   2988 ****        64.2500  17.5000  29.0000 Du        
   2989 ****        64.2500  17.5000  29.2500 Du        
   2990 ****        64.2500  17.5000  29.5000 Du        
   2991 ****        64.2500  17.5000  29.7500 Du        
   2992 ****        64.2500  17.5000  30.0000 Du        
   2993 ****        64.2500  17.5000  30.2500 Du        
   2994 ****        64.2500  17.5000  30.5000 Du        
   2995 ****        64.2500  17.5000  30.7500 Du        
   2996 ****        64.2500  17.5000  31.0000 Du        
   2997 ****        64.2500  17.5000  31.2500 Du        
   2998 ****        64.2500  17.5000  31.5000 Du        
   2999 ****        64.2500  17.7500  29.2500 Du        
   3000 ****        64.2500  17.7500  29.5000 Du        
   3001 ****        64.2500  17.7500  29.7500 Du        
   3002 ****        64.2500  17.7500  30.0000 Du        
   3003 ****        64.2500  17.7500  30.2500 Du        
   3004 ****        64.2500  17.7500  30.5000 Du        
   3005 ****        64.2500  17.7500  30.7500 Du        
   3006 ****        64.2500  17.7500  31.0000 Du        
   3007 ****        64.2500  17.7500  31.2500 Du        
   3008 ****        64.2500  17.7500  31.5000 Du        
   3009 ****        64.2500  18.0000  30.5000 Du        
   3010 ****        64.2500  18.0000  30.7500 Du        
   3011 ****        64.2500  18.0000  31.0000 Du        
   3012 ****        64.2500  18.0000  31.2500 Du        
   3013 ****        64.2500  18.0000  31.5000 Du        
   3014 ****        64.2500  21.2500  25.7500 Du        
   3015 ****        64.2500  21.5000  25.5000 Du        
   3016 ****        64.2500  21.5000  25.7500 Du        
   3017 ****        64.2500  21.7500  25.2500 Du        
   3018 ****        64.2500  21.7500  25.5000 Du        
   3019 ****        64.2500  21.7500  25.7500 Du        
   3020 ****        64.2500  21.7500  26.0000 Du        
   3021 ****        64.2500  22.0000  25.0000 Du        
   3022 ****        64.2500  22.0000  25.2500 Du        
   3023 ****        64.2500  22.0000  25.5000 Du        
   3024 ****        64.2500  22.0000  25.7500 Du        
   3025 ****        64.2500  22.0000  26.0000 Du        
   3026 ****        64.2500  22.2500  24.7500 Du        
   3027 ****        64.2500  22.2500  25.0000 Du        
   3028 ****        64.2500  22.2500  25.2500 Du        
   3029 ****        64.2500  22.2500  25.5000 Du        
   3030 ****        64.2500  22.2500  25.7500 Du        
   3031 ****        64.2500  22.2500  26.0000 Du        
   3032 ****        64.2500  22.5000  24.5000 Du        
   3033 ****        64.2500  22.5000  24.7500 Du        
   3034 ****        64.2500  22.5000  25.0000 Du        
   3035 ****        64.2500  22.5000  25.2500 Du        
   3036 ****        64.2500  22.5000  25.5000 Du        
   3037 ****        64.2500  22.5000  25.7500 Du        
   3038 ****        64.2500  22.5000  26.0000 Du        
   3039 ****        64.2500  22.5000  26.2500 Du        
   3040 ****        64.2500  22.7500  24.0000 Du        
   3041 ****        64.2500  22.7500  24.2500 Du        
   3042 ****        64.2500  22.7500  24.5000 Du        
   3043 ****        64.2500  22.7500  24.7500 Du        
   3044 ****        64.2500  22.7500  25.0000 Du        
   3045 ****        64.2500  22.7500  25.2500 Du        
   3046 ****        64.2500  22.7500  25.5000 Du        
   3047 ****        64.2500  22.7500  25.7500 Du        
   3048 ****        64.2500  22.7500  26.0000 Du        
   3049 ****        64.2500  22.7500  26.2500 Du        
   3050 ****        64.2500  23.0000  23.0000 Du        
   3051 ****        64.2500  23.0000  23.2500 Du        
   3052 ****        64.2500  23.0000  23.5000 Du        
   3053 ****        64.2500  23.0000  23.7500 Du        
   3054 ****        64.2500  23.0000  24.0000 Du        
   3055 ****        64.2500  23.0000  24.2500 Du        
   3056 ****        64.2500  23.0000  24.5000 Du        
   3057 ****        64.2500  23.0000  24.7500 Du        
   3058 ****        64.2500  23.0000  25.0000 Du        
   3059 ****        64.2500  23.0000  25.2500 Du        
   3060 ****        64.2500  23.0000  25.5000 Du        
   3061 ****        64.2500  23.0000  25.7500 Du        
   3062 ****        64.2500  23.0000  26.0000 Du        
   3063 ****        64.2500  23.0000  26.2500 Du        
   3064 ****        64.2500  23.0000  26.5000 Du        
   3065 ****        64.2500  23.2500  22.0000 Du        
   3066 ****        64.2500  23.2500  22.2500 Du        
   3067 ****        64.2500  23.2500  22.5000 Du        
   3068 ****        64.2500  23.2500  22.7500 Du        
   3069 ****        64.2500  23.2500  23.0000 Du        
   3070 ****        64.2500  23.2500  23.2500 Du        
   3071 ****        64.2500  23.2500  23.5000 Du        
   3072 ****        64.2500  23.2500  23.7500 Du        
   3073 ****        64.2500  23.2500  24.0000 Du        
   3074 ****        64.2500  23.2500  24.2500 Du        
   3075 ****        64.2500  23.2500  24.5000 Du        
   3076 ****        64.2500  23.2500  24.7500 Du        
   3077 ****        64.2500  23.2500  25.0000 Du        
   3078 ****        64.2500  23.2500  25.2500 Du        
   3079 ****        64.2500  23.2500  25.5000 Du        
   3080 ****        64.2500  23.2500  25.7500 Du        
   3081 ****        64.2500  23.2500  26.0000 Du        
   3082 ****        64.2500  23.2500  26.2500 Du        
   3083 ****        64.2500  23.2500  26.5000 Du        
   3084 ****        64.2500  23.2500  26.7500 Du        
   3085 ****        64.2500  23.5000  21.5000 Du        
   3086 ****        64.2500  23.5000  21.7500 Du        
   3087 ****        64.2500  23.5000  22.0000 Du        
   3088 ****        64.2500  23.5000  22.2500 Du        
   3089 ****        64.2500  23.5000  22.5000 Du        
   3090 ****        64.2500  23.5000  22.7500 Du        
   3091 ****        64.2500  23.5000  23.0000 Du        
   3092 ****        64.2500  23.5000  23.2500 Du        
   3093 ****        64.2500  23.5000  23.5000 Du        
   3094 ****        64.2500  23.5000  23.7500 Du        
   3095 ****        64.2500  23.5000  24.0000 Du        
   3096 ****        64.2500  23.5000  24.2500 Du        
   3097 ****        64.2500  23.5000  24.5000 Du        
   3098 ****        64.2500  23.5000  24.7500 Du        
   3099 ****        64.2500  23.5000  25.0000 Du        
   3100 ****        64.2500  23.5000  25.2500 Du        
   3101 ****        64.2500  23.5000  25.5000 Du        
   3102 ****        64.2500  23.5000  25.7500 Du        
   3103 ****        64.2500  23.5000  26.0000 Du        
   3104 ****        64.2500  23.5000  26.2500 Du        
   3105 ****        64.2500  23.5000  26.5000 Du        
   3106 ****        64.2500  23.5000  26.7500 Du        
   3107 ****        64.2500  23.5000  27.0000 Du        
   3108 ****        64.2500  23.7500  21.2500 Du        
   3109 ****        64.2500  23.7500  21.5000 Du        
   3110 ****        64.2500  23.7500  21.7500 Du        
   3111 ****        64.2500  23.7500  22.0000 Du        
   3112 ****        64.2500  23.7500  22.2500 Du        
   3113 ****        64.2500  23.7500  22.5000 Du        
   3114 ****        64.2500  23.7500  22.7500 Du        
   3115 ****        64.2500  23.7500  23.0000 Du        
   3116 ****        64.2500  23.7500  23.2500 Du        
   3117 ****        64.2500  23.7500  23.5000 Du        
   3118 ****        64.2500  23.7500  23.7500 Du        
   3119 ****        64.2500  23.7500  24.0000 Du        
   3120 ****        64.2500  23.7500  24.2500 Du        
   3121 ****        64.2500  23.7500  24.5000 Du        
   3122 ****        64.2500  23.7500  24.7500 Du        
   3123 ****        64.2500  23.7500  25.0000 Du        
   3124 ****        64.2500  23.7500  25.2500 Du        
   3125 ****        64.2500  23.7500  25.5000 Du        
   3126 ****        64.2500  23.7500  25.7500 Du        
   3127 ****        64.2500  23.7500  26.0000 Du        
   3128 ****        64.2500  23.7500  26.2500 Du        
   3129 ****        64.2500  23.7500  26.5000 Du        
   3130 ****        64.2500  23.7500  26.7500 Du        
   3131 ****        64.2500  23.7500  27.0000 Du        
   3132 ****        64.2500  23.7500  27.2500 Du        
   3133 ****        64.5000  13.7500  30.5000 Du        
   3134 ****        64.5000  13.7500  30.7500 Du        
   3135 ****        64.5000  13.7500  31.0000 Du        
   3136 ****        64.5000  13.7500  31.2500 Du        
   3137 ****        64.5000  13.7500  31.5000 Du        
   3138 ****        64.5000  14.0000  30.2500 Du        
   3139 ****        64.5000  14.0000  30.5000 Du        
   3140 ****        64.5000  14.0000  30.7500 Du        
   3141 ****        64.5000  14.0000  31.0000 Du        
   3142 ****        64.5000  14.0000  31.2500 Du        
   3143 ****        64.5000  14.0000  31.5000 Du        
   3144 ****        64.5000  14.0000  31.7500 Du        
   3145 ****        64.5000  14.0000  32.0000 Du        
   3146 ****        64.5000  14.2500  30.0000 Du        
   3147 ****        64.5000  14.2500  30.2500 Du        
   3148 ****        64.5000  14.2500  30.5000 Du        
   3149 ****        64.5000  14.2500  30.7500 Du        
   3150 ****        64.5000  14.2500  31.0000 Du        
   3151 ****        64.5000  14.2500  31.2500 Du        
   3152 ****        64.5000  14.2500  31.5000 Du        
   3153 ****        64.5000  14.2500  31.7500 Du        
   3154 ****        64.5000  14.2500  32.0000 Du        
   3155 ****        64.5000  14.5000  29.7500 Du        
   3156 ****        64.5000  14.5000  30.0000 Du        
   3157 ****        64.5000  14.5000  30.2500 Du        
   3158 ****        64.5000  14.5000  30.5000 Du        
   3159 ****        64.5000  14.5000  30.7500 Du        
   3160 ****        64.5000  14.5000  31.0000 Du        
   3161 ****        64.5000  14.5000  31.2500 Du        
   3162 ****        64.5000  14.5000  31.5000 Du        
   3163 ****        64.5000  14.5000  31.7500 Du        
   3164 ****        64.5000  14.5000  32.0000 Du        
   3165 ****        64.5000  14.7500  29.5000 Du        
   3166 ****        64.5000  14.7500  29.7500 Du        
   3167 ****        64.5000  14.7500  30.0000 Du        
   3168 ****        64.5000  14.7500  30.2500 Du        
   3169 ****        64.5000  14.7500  30.5000 Du        
   3170 ****        64.5000  14.7500  30.7500 Du        
   3171 ****        64.5000  14.7500  31.0000 Du        
   3172 ****        64.5000  14.7500  31.2500 Du        
   3173 ****        64.5000  14.7500  31.5000 Du        
   3174 ****        64.5000  14.7500  31.7500 Du        
   3175 ****        64.5000  14.7500  32.0000 Du        
   3176 ****        64.5000  15.0000  29.5000 Du        
   3177 ****        64.5000  15.0000  29.7500 Du        
   3178 ****        64.5000  15.0000  30.0000 Du        
   3179 ****        64.5000  15.0000  30.2500 Du        
   3180 ****        64.5000  15.0000  30.5000 Du        
   3181 ****        64.5000  15.0000  30.7500 Du        
   3182 ****        64.5000  15.0000  31.0000 Du        
   3183 ****        64.5000  15.0000  31.2500 Du        
   3184 ****        64.5000  15.0000  31.5000 Du        
   3185 ****        64.5000  15.0000  31.7500 Du        
   3186 ****        64.5000  15.0000  32.0000 Du        
   3187 ****        64.5000  15.2500  29.5000 Du        
   3188 ****        64.5000  15.2500  29.7500 Du        
   3189 ****        64.5000  15.2500  30.0000 Du        
   3190 ****        64.5000  15.2500  30.2500 Du        
   3191 ****        64.5000  15.2500  30.5000 Du        
   3192 ****        64.5000  15.2500  30.7500 Du        
   3193 ****        64.5000  15.2500  31.0000 Du        
   3194 ****        64.5000  15.2500  31.2500 Du        
   3195 ****        64.5000  15.2500  31.5000 Du        
   3196 ****        64.5000  15.2500  31.7500 Du        
   3197 ****        64.5000  15.2500  32.0000 Du        
   3198 ****        64.5000  15.5000  28.7500 Du        
   3199 ****        64.5000  15.5000  29.0000 Du        
   3200 ****        64.5000  15.5000  29.2500 Du        
   3201 ****        64.5000  15.5000  29.5000 Du        
   3202 ****        64.5000  15.5000  29.7500 Du        
   3203 ****        64.5000  15.5000  30.0000 Du        
   3204 ****        64.5000  15.5000  30.2500 Du        
   3205 ****        64.5000  15.5000  30.5000 Du        
   3206 ****        64.5000  15.5000  30.7500 Du        
   3207 ****        64.5000  15.5000  31.0000 Du        
   3208 ****        64.5000  15.5000  31.2500 Du        
   3209 ****        64.5000  15.5000  31.5000 Du        
   3210 ****        64.5000  15.5000  31.7500 Du        
   3211 ****        64.5000  15.7500  26.7500 Du        
   3212 ****        64.5000  15.7500  27.0000 Du        
   3213 ****        64.5000  15.7500  27.2500 Du        
   3214 ****        64.5000  15.7500  28.5000 Du        
   3215 ****        64.5000  15.7500  28.7500 Du        
   3216 ****        64.5000  15.7500  29.0000 Du        
   3217 ****        64.5000  15.7500  29.2500 Du        
   3218 ****        64.5000  15.7500  29.5000 Du        
   3219 ****        64.5000  15.7500  29.7500 Du        
   3220 ****        64.5000  15.7500  30.0000 Du        
   3221 ****        64.5000  15.7500  30.2500 Du        
   3222 ****        64.5000  15.7500  30.5000 Du        
   3223 ****        64.5000  15.7500  30.7500 Du        
   3224 ****        64.5000  15.7500  31.0000 Du        
   3225 ****        64.5000  15.7500  31.2500 Du        
   3226 ****        64.5000  15.7500  31.5000 Du        
   3227 ****        64.5000  15.7500  31.7500 Du        
   3228 ****        64.5000  16.0000  26.5000 Du        
   3229 ****        64.5000  16.0000  26.7500 Du        
   3230 ****        64.5000  16.0000  27.0000 Du        
   3231 ****        64.5000  16.0000  27.2500 Du        
   3232 ****        64.5000  16.0000  28.5000 Du        
   3233 ****        64.5000  16.0000  28.7500 Du        
   3234 ****        64.5000  16.0000  29.0000 Du        
   3235 ****        64.5000  16.0000  29.2500 Du        
   3236 ****        64.5000  16.0000  29.5000 Du        
   3237 ****        64.5000  16.0000  29.7500 Du        
   3238 ****        64.5000  16.0000  30.0000 Du        
   3239 ****        64.5000  16.0000  30.2500 Du        
   3240 ****        64.5000  16.0000  30.5000 Du        
   3241 ****        64.5000  16.0000  30.7500 Du        
   3242 ****        64.5000  16.0000  31.0000 Du        
   3243 ****        64.5000  16.0000  31.2500 Du        
   3244 ****        64.5000  16.0000  31.5000 Du        
   3245 ****        64.5000  16.2500  26.5000 Du        
   3246 ****        64.5000  16.2500  26.7500 Du        
   3247 ****        64.5000  16.2500  27.0000 Du        
   3248 ****        64.5000  16.2500  27.2500 Du        
   3249 ****        64.5000  16.2500  28.5000 Du        
   3250 ****        64.5000  16.2500  29.2500 Du        
   3251 ****        64.5000  16.2500  29.5000 Du        
   3252 ****        64.5000  16.2500  29.7500 Du        
   3253 ****        64.5000  16.2500  30.0000 Du        
   3254 ****        64.5000  16.2500  30.2500 Du        
   3255 ****        64.5000  16.2500  30.5000 Du        
   3256 ****        64.5000  16.2500  30.7500 Du        
   3257 ****        64.5000  16.2500  31.0000 Du        
   3258 ****        64.5000  16.2500  31.2500 Du        
   3259 ****        64.5000  16.2500  31.5000 Du        
   3260 ****        64.5000  16.5000  26.2500 Du        
   3261 ****        64.5000  16.5000  26.5000 Du        
   3262 ****        64.5000  16.5000  26.7500 Du        
   3263 ****        64.5000  16.5000  27.0000 Du        
   3264 ****        64.5000  16.5000  27.2500 Du        
   3265 ****        64.5000  16.5000  27.7500 Du        
   3266 ****        64.5000  16.5000  28.0000 Du        
   3267 ****        64.5000  16.5000  28.2500 Du        
   3268 ****        64.5000  16.5000  29.2500 Du        
   3269 ****        64.5000  16.5000  29.5000 Du        
   3270 ****        64.5000  16.5000  29.7500 Du        
   3271 ****        64.5000  16.5000  30.0000 Du        
   3272 ****        64.5000  16.5000  30.2500 Du        
   3273 ****        64.5000  16.5000  30.5000 Du        
   3274 ****        64.5000  16.5000  30.7500 Du        
   3275 ****        64.5000  16.5000  31.0000 Du        
   3276 ****        64.5000  16.5000  31.2500 Du        
   3277 ****        64.5000  16.5000  31.5000 Du        
   3278 ****        64.5000  16.7500  26.7500 Du        
   3279 ****        64.5000  16.7500  27.0000 Du        
   3280 ****        64.5000  16.7500  27.2500 Du        
   3281 ****        64.5000  16.7500  28.0000 Du        
   3282 ****        64.5000  16.7500  28.2500 Du        
   3283 ****        64.5000  16.7500  28.5000 Du        
   3284 ****        64.5000  16.7500  28.7500 Du        
   3285 ****        64.5000  16.7500  29.0000 Du        
   3286 ****        64.5000  16.7500  29.2500 Du        
   3287 ****        64.5000  16.7500  29.5000 Du        
   3288 ****        64.5000  16.7500  29.7500 Du        
   3289 ****        64.5000  16.7500  30.0000 Du        
   3290 ****        64.5000  16.7500  30.2500 Du        
   3291 ****        64.5000  16.7500  30.5000 Du        
   3292 ****        64.5000  16.7500  30.7500 Du        
   3293 ****        64.5000  16.7500  31.0000 Du        
   3294 ****        64.5000  16.7500  31.2500 Du        
   3295 ****        64.5000  17.0000  28.2500 Du        
   3296 ****        64.5000  17.0000  28.7500 Du        
   3297 ****        64.5000  17.0000  29.0000 Du        
   3298 ****        64.5000  17.0000  29.2500 Du        
   3299 ****        64.5000  17.0000  29.5000 Du        
   3300 ****        64.5000  17.0000  29.7500 Du        
   3301 ****        64.5000  17.0000  30.0000 Du        
   3302 ****        64.5000  17.0000  30.2500 Du        
   3303 ****        64.5000  17.0000  30.5000 Du        
   3304 ****        64.5000  17.0000  30.7500 Du        
   3305 ****        64.5000  17.0000  31.0000 Du        
   3306 ****        64.5000  17.0000  31.2500 Du        
   3307 ****        64.5000  17.2500  28.2500 Du        
   3308 ****        64.5000  17.2500  28.7500 Du        
   3309 ****        64.5000  17.2500  29.0000 Du        
   3310 ****        64.5000  17.2500  29.2500 Du        
   3311 ****        64.5000  17.2500  29.5000 Du        
   3312 ****        64.5000  17.2500  29.7500 Du        
   3313 ****        64.5000  17.2500  30.0000 Du        
   3314 ****        64.5000  17.2500  30.2500 Du        
   3315 ****        64.5000  17.2500  30.5000 Du        
   3316 ****        64.5000  17.2500  30.7500 Du        
   3317 ****        64.5000  17.2500  31.0000 Du        
   3318 ****        64.5000  17.2500  31.2500 Du        
   3319 ****        64.5000  17.5000  28.2500 Du        
   3320 ****        64.5000  17.5000  29.0000 Du        
   3321 ****        64.5000  17.5000  29.2500 Du        
   3322 ****        64.5000  17.5000  29.5000 Du        
   3323 ****        64.5000  17.5000  29.7500 Du        
   3324 ****        64.5000  17.5000  30.0000 Du        
   3325 ****        64.5000  17.5000  30.2500 Du        
   3326 ****        64.5000  17.5000  30.5000 Du        
   3327 ****        64.5000  17.5000  30.7500 Du        
   3328 ****        64.5000  17.5000  31.0000 Du        
   3329 ****        64.5000  17.5000  31.2500 Du        
   3330 ****        64.5000  17.7500  29.2500 Du        
   3331 ****        64.5000  17.7500  29.5000 Du        
   3332 ****        64.5000  17.7500  29.7500 Du        
   3333 ****        64.5000  17.7500  30.0000 Du        
   3334 ****        64.5000  17.7500  30.2500 Du        
   3335 ****        64.5000  17.7500  30.5000 Du        
   3336 ****        64.5000  17.7500  30.7500 Du        
   3337 ****        64.5000  17.7500  31.0000 Du        
   3338 ****        64.5000  17.7500  31.2500 Du        
   3339 ****        64.5000  18.0000  30.0000 Du        
   3340 ****        64.5000  18.0000  30.2500 Du        
   3341 ****        64.5000  18.0000  30.5000 Du        
   3342 ****        64.5000  18.0000  30.7500 Du        
   3343 ****        64.5000  18.0000  31.0000 Du        
   3344 ****        64.5000  18.0000  31.2500 Du        
   3345 ****        64.5000  18.2500  30.7500 Du        
   3346 ****        64.5000  20.2500  26.0000 Du        
   3347 ****        64.5000  21.2500  25.7500 Du        
   3348 ****        64.5000  21.5000  25.7500 Du        
   3349 ****        64.5000  21.7500  25.5000 Du        
   3350 ****        64.5000  21.7500  25.7500 Du        
   3351 ****        64.5000  22.0000  25.2500 Du        
   3352 ****        64.5000  22.0000  25.5000 Du        
   3353 ****        64.5000  22.0000  25.7500 Du        
   3354 ****        64.5000  22.0000  26.0000 Du        
   3355 ****        64.5000  22.2500  25.0000 Du        
   3356 ****        64.5000  22.2500  25.2500 Du        
   3357 ****        64.5000  22.2500  25.5000 Du        
   3358 ****        64.5000  22.2500  25.7500 Du        
   3359 ****        64.5000  22.2500  26.0000 Du        
   3360 ****        64.5000  22.5000  24.7500 Du        
   3361 ****        64.5000  22.5000  25.0000 Du        
   3362 ****        64.5000  22.5000  25.2500 Du        
   3363 ****        64.5000  22.5000  25.5000 Du        
   3364 ****        64.5000  22.5000  25.7500 Du        
   3365 ****        64.5000  22.5000  26.0000 Du        
   3366 ****        64.5000  22.7500  24.5000 Du        
   3367 ****        64.5000  22.7500  24.7500 Du        
   3368 ****        64.5000  22.7500  25.0000 Du        
   3369 ****        64.5000  22.7500  25.2500 Du        
   3370 ****        64.5000  22.7500  25.5000 Du        
   3371 ****        64.5000  22.7500  25.7500 Du        
   3372 ****        64.5000  22.7500  26.0000 Du        
   3373 ****        64.5000  23.0000  23.2500 Du        
   3374 ****        64.5000  23.0000  23.7500 Du        
   3375 ****        64.5000  23.0000  24.0000 Du        
   3376 ****        64.5000  23.0000  24.2500 Du        
   3377 ****        64.5000  23.0000  24.5000 Du        
   3378 ****        64.5000  23.0000  24.7500 Du        
   3379 ****        64.5000  23.0000  25.0000 Du        
   3380 ****        64.5000  23.0000  25.2500 Du        
   3381 ****        64.5000  23.0000  25.5000 Du        
   3382 ****        64.5000  23.0000  25.7500 Du        
   3383 ****        64.5000  23.0000  26.0000 Du        
   3384 ****        64.5000  23.0000  26.2500 Du        
   3385 ****        64.5000  23.2500  22.2500 Du        
   3386 ****        64.5000  23.2500  22.5000 Du        
   3387 ****        64.5000  23.2500  22.7500 Du        
   3388 ****        64.5000  23.2500  23.0000 Du        
   3389 ****        64.5000  23.2500  23.2500 Du        
   3390 ****        64.5000  23.2500  23.5000 Du        
   3391 ****        64.5000  23.2500  23.7500 Du        
   3392 ****        64.5000  23.2500  24.0000 Du        
   3393 ****        64.5000  23.2500  24.2500 Du        
   3394 ****        64.5000  23.2500  24.5000 Du        
   3395 ****        64.5000  23.2500  24.7500 Du        
   3396 ****        64.5000  23.2500  25.0000 Du        
   3397 ****        64.5000  23.2500  25.2500 Du        
   3398 ****        64.5000  23.2500  25.5000 Du        
   3399 ****        64.5000  23.2500  25.7500 Du        
   3400 ****        64.5000  23.2500  26.0000 Du        
   3401 ****        64.5000  23.2500  26.2500 Du        
   3402 ****        64.5000  23.5000  22.0000 Du        
   3403 ****        64.5000  23.5000  22.2500 Du        
   3404 ****        64.5000  23.5000  22.7500 Du        
   3405 ****        64.5000  23.5000  23.0000 Du        
   3406 ****        64.5000  23.5000  23.2500 Du        
   3407 ****        64.5000  23.5000  24.0000 Du        
   3408 ****        64.5000  23.5000  24.2500 Du        
   3409 ****        64.5000  23.5000  25.5000 Du        
   3410 ****        64.5000  23.5000  25.7500 Du        
   3411 ****        64.5000  23.5000  26.0000 Du        
   3412 ****        64.5000  23.7500  21.7500 Du        
   3413 ****        64.5000  23.7500  22.0000 Du        
   3414 ****        64.5000  23.7500  22.2500 Du        
   3415 ****        64.5000  23.7500  22.5000 Du        
   3416 ****        64.5000  23.7500  22.7500 Du        
   3417 ****        64.5000  23.7500  23.0000 Du        
   3418 ****        64.5000  23.7500  24.0000 Du        
   3419 ****        64.5000  23.7500  24.2500 Du        
   3420 ****        64.5000  23.7500  25.7500 Du        
   3421 ****        64.5000  23.7500  26.0000 Du        
   3422 ****        64.5000  23.7500  26.2500 Du        
   3423 ****        64.7500  13.7500  30.5000 Du        
   3424 ****        64.7500  13.7500  30.7500 Du        
   3425 ****        64.7500  13.7500  31.0000 Du        
   3426 ****        64.7500  13.7500  31.2500 Du        
   3427 ****        64.7500  13.7500  31.5000 Du        
   3428 ****        64.7500  14.0000  30.2500 Du        
   3429 ****        64.7500  14.0000  30.5000 Du        
   3430 ****        64.7500  14.0000  30.7500 Du        
   3431 ****        64.7500  14.0000  31.0000 Du        
   3432 ****        64.7500  14.0000  31.2500 Du        
   3433 ****        64.7500  14.0000  31.5000 Du        
   3434 ****        64.7500  14.0000  31.7500 Du        
   3435 ****        64.7500  14.0000  32.0000 Du        
   3436 ****        64.7500  14.2500  30.0000 Du        
   3437 ****        64.7500  14.2500  30.2500 Du        
   3438 ****        64.7500  14.2500  30.5000 Du        
   3439 ****        64.7500  14.2500  30.7500 Du        
   3440 ****        64.7500  14.2500  31.0000 Du        
   3441 ****        64.7500  14.2500  31.2500 Du        
   3442 ****        64.7500  14.2500  31.5000 Du        
   3443 ****        64.7500  14.2500  31.7500 Du        
   3444 ****        64.7500  14.2500  32.0000 Du        
   3445 ****        64.7500  14.5000  29.7500 Du        
   3446 ****        64.7500  14.5000  30.0000 Du        
   3447 ****        64.7500  14.5000  30.2500 Du        
   3448 ****        64.7500  14.5000  30.5000 Du        
   3449 ****        64.7500  14.5000  30.7500 Du        
   3450 ****        64.7500  14.5000  31.0000 Du        
   3451 ****        64.7500  14.5000  31.2500 Du        
   3452 ****        64.7500  14.5000  31.5000 Du        
   3453 ****        64.7500  14.5000  31.7500 Du        
   3454 ****        64.7500  14.5000  32.0000 Du        
   3455 ****        64.7500  14.7500  29.5000 Du        
   3456 ****        64.7500  14.7500  29.7500 Du        
   3457 ****        64.7500  14.7500  30.0000 Du        
   3458 ****        64.7500  14.7500  30.2500 Du        
   3459 ****        64.7500  14.7500  30.5000 Du        
   3460 ****        64.7500  14.7500  30.7500 Du        
   3461 ****        64.7500  14.7500  31.0000 Du        
   3462 ****        64.7500  14.7500  31.2500 Du        
   3463 ****        64.7500  14.7500  31.5000 Du        
   3464 ****        64.7500  14.7500  31.7500 Du        
   3465 ****        64.7500  14.7500  32.0000 Du        
   3466 ****        64.7500  15.0000  29.5000 Du        
   3467 ****        64.7500  15.0000  29.7500 Du        
   3468 ****        64.7500  15.0000  30.0000 Du        
   3469 ****        64.7500  15.0000  30.2500 Du        
   3470 ****        64.7500  15.0000  30.5000 Du        
   3471 ****        64.7500  15.0000  30.7500 Du        
   3472 ****        64.7500  15.0000  31.0000 Du        
   3473 ****        64.7500  15.0000  31.2500 Du        
   3474 ****        64.7500  15.0000  31.5000 Du        
   3475 ****        64.7500  15.0000  31.7500 Du        
   3476 ****        64.7500  15.0000  32.0000 Du        
   3477 ****        64.7500  15.2500  29.5000 Du        
   3478 ****        64.7500  15.2500  29.7500 Du        
   3479 ****        64.7500  15.2500  30.0000 Du        
   3480 ****        64.7500  15.2500  30.2500 Du        
   3481 ****        64.7500  15.2500  30.5000 Du        
   3482 ****        64.7500  15.2500  30.7500 Du        
   3483 ****        64.7500  15.2500  31.0000 Du        
   3484 ****        64.7500  15.2500  31.2500 Du        
   3485 ****        64.7500  15.2500  31.5000 Du        
   3486 ****        64.7500  15.2500  31.7500 Du        
   3487 ****        64.7500  15.2500  32.0000 Du        
   3488 ****        64.7500  15.5000  29.5000 Du        
   3489 ****        64.7500  15.5000  29.7500 Du        
   3490 ****        64.7500  15.5000  30.0000 Du        
   3491 ****        64.7500  15.5000  30.2500 Du        
   3492 ****        64.7500  15.5000  30.5000 Du        
   3493 ****        64.7500  15.5000  30.7500 Du        
   3494 ****        64.7500  15.5000  31.0000 Du        
   3495 ****        64.7500  15.5000  31.2500 Du        
   3496 ****        64.7500  15.5000  31.5000 Du        
   3497 ****        64.7500  15.5000  31.7500 Du        
   3498 ****        64.7500  15.7500  27.0000 Du        
   3499 ****        64.7500  15.7500  27.2500 Du        
   3500 ****        64.7500  15.7500  28.5000 Du        
   3501 ****        64.7500  15.7500  28.7500 Du        
   3502 ****        64.7500  15.7500  29.0000 Du        
   3503 ****        64.7500  15.7500  29.2500 Du        
   3504 ****        64.7500  15.7500  29.5000 Du        
   3505 ****        64.7500  15.7500  29.7500 Du        
   3506 ****        64.7500  15.7500  30.0000 Du        
   3507 ****        64.7500  15.7500  30.2500 Du        
   3508 ****        64.7500  15.7500  30.5000 Du        
   3509 ****        64.7500  15.7500  30.7500 Du        
   3510 ****        64.7500  15.7500  31.0000 Du        
   3511 ****        64.7500  15.7500  31.2500 Du        
   3512 ****        64.7500  15.7500  31.5000 Du        
   3513 ****        64.7500  15.7500  31.7500 Du        
   3514 ****        64.7500  16.0000  26.5000 Du        
   3515 ****        64.7500  16.0000  26.7500 Du        
   3516 ****        64.7500  16.0000  27.0000 Du        
   3517 ****        64.7500  16.0000  27.2500 Du        
   3518 ****        64.7500  16.0000  28.5000 Du        
   3519 ****        64.7500  16.0000  28.7500 Du        
   3520 ****        64.7500  16.0000  29.0000 Du        
   3521 ****        64.7500  16.0000  29.2500 Du        
   3522 ****        64.7500  16.0000  29.5000 Du        
   3523 ****        64.7500  16.0000  29.7500 Du        
   3524 ****        64.7500  16.0000  30.0000 Du        
   3525 ****        64.7500  16.0000  30.2500 Du        
   3526 ****        64.7500  16.0000  30.5000 Du        
   3527 ****        64.7500  16.0000  30.7500 Du        
   3528 ****        64.7500  16.0000  31.0000 Du        
   3529 ****        64.7500  16.0000  31.2500 Du        
   3530 ****        64.7500  16.0000  31.5000 Du        
   3531 ****        64.7500  16.2500  26.5000 Du        
   3532 ****        64.7500  16.2500  26.7500 Du        
   3533 ****        64.7500  16.2500  27.0000 Du        
   3534 ****        64.7500  16.2500  27.2500 Du        
   3535 ****        64.7500  16.2500  27.5000 Du        
   3536 ****        64.7500  16.2500  28.5000 Du        
   3537 ****        64.7500  16.2500  28.7500 Du        
   3538 ****        64.7500  16.2500  29.0000 Du        
   3539 ****        64.7500  16.2500  29.2500 Du        
   3540 ****        64.7500  16.2500  29.5000 Du        
   3541 ****        64.7500  16.2500  29.7500 Du        
   3542 ****        64.7500  16.2500  30.0000 Du        
   3543 ****        64.7500  16.2500  30.2500 Du        
   3544 ****        64.7500  16.2500  30.5000 Du        
   3545 ****        64.7500  16.2500  30.7500 Du        
   3546 ****        64.7500  16.2500  31.0000 Du        
   3547 ****        64.7500  16.2500  31.2500 Du        
   3548 ****        64.7500  16.5000  26.2500 Du        
   3549 ****        64.7500  16.5000  26.5000 Du        
   3550 ****        64.7500  16.5000  26.7500 Du        
   3551 ****        64.7500  16.5000  27.0000 Du        
   3552 ****        64.7500  16.5000  27.2500 Du        
   3553 ****        64.7500  16.5000  27.5000 Du        
   3554 ****        64.7500  16.5000  27.7500 Du        
   3555 ****        64.7500  16.5000  28.0000 Du        
   3556 ****        64.7500  16.5000  28.2500 Du        
   3557 ****        64.7500  16.5000  29.0000 Du        
   3558 ****        64.7500  16.5000  29.2500 Du        
   3559 ****        64.7500  16.5000  29.5000 Du        
   3560 ****        64.7500  16.5000  29.7500 Du        
   3561 ****        64.7500  16.5000  30.0000 Du        
   3562 ****        64.7500  16.5000  30.2500 Du        
   3563 ****        64.7500  16.5000  30.5000 Du        
   3564 ****        64.7500  16.5000  30.7500 Du        
   3565 ****        64.7500  16.5000  31.0000 Du        
   3566 ****        64.7500  16.5000  31.2500 Du        
   3567 ****        64.7500  16.7500  26.2500 Du        
   3568 ****        64.7500  16.7500  26.5000 Du        
   3569 ****        64.7500  16.7500  26.7500 Du        
   3570 ****        64.7500  16.7500  27.0000 Du        
   3571 ****        64.7500  16.7500  27.2500 Du        
   3572 ****        64.7500  16.7500  27.5000 Du        
   3573 ****        64.7500  16.7500  27.7500 Du        
   3574 ****        64.7500  16.7500  28.0000 Du        
   3575 ****        64.7500  16.7500  28.2500 Du        
   3576 ****        64.7500  16.7500  29.0000 Du        
   3577 ****        64.7500  16.7500  29.2500 Du        
   3578 ****        64.7500  16.7500  29.5000 Du        
   3579 ****        64.7500  16.7500  29.7500 Du        
   3580 ****        64.7500  16.7500  30.0000 Du        
   3581 ****        64.7500  16.7500  30.2500 Du        
   3582 ****        64.7500  16.7500  30.5000 Du        
   3583 ****        64.7500  16.7500  30.7500 Du        
   3584 ****        64.7500  16.7500  31.0000 Du        
   3585 ****        64.7500  17.0000  26.2500 Du        
   3586 ****        64.7500  17.0000  26.5000 Du        
   3587 ****        64.7500  17.0000  26.7500 Du        
   3588 ****        64.7500  17.0000  27.0000 Du        
   3589 ****        64.7500  17.0000  27.2500 Du        
   3590 ****        64.7500  17.0000  28.0000 Du        
   3591 ****        64.7500  17.0000  28.2500 Du        
   3592 ****        64.7500  17.0000  28.7500 Du        
   3593 ****        64.7500  17.0000  29.0000 Du        
   3594 ****        64.7500  17.0000  29.2500 Du        
   3595 ****        64.7500  17.0000  29.5000 Du        
   3596 ****        64.7500  17.0000  29.7500 Du        
   3597 ****        64.7500  17.0000  30.0000 Du        
   3598 ****        64.7500  17.0000  30.2500 Du        
   3599 ****        64.7500  17.0000  30.5000 Du        
   3600 ****        64.7500  17.0000  30.7500 Du        
   3601 ****        64.7500  17.0000  31.0000 Du        
   3602 ****        64.7500  17.2500  26.7500 Du        
   3603 ****        64.7500  17.2500  27.0000 Du        
   3604 ****        64.7500  17.2500  27.2500 Du        
   3605 ****        64.7500  17.2500  28.0000 Du        
   3606 ****        64.7500  17.2500  28.7500 Du        
   3607 ****        64.7500  17.2500  29.0000 Du        
   3608 ****        64.7500  17.2500  29.2500 Du        
   3609 ****        64.7500  17.2500  29.5000 Du        
   3610 ****        64.7500  17.2500  29.7500 Du        
   3611 ****        64.7500  17.2500  30.0000 Du        
   3612 ****        64.7500  17.2500  30.2500 Du        
   3613 ****        64.7500  17.2500  30.5000 Du        
   3614 ****        64.7500  17.2500  30.7500 Du        
   3615 ****        64.7500  17.2500  31.0000 Du        
   3616 ****        64.7500  17.5000  26.7500 Du        
   3617 ****        64.7500  17.5000  27.0000 Du        
   3618 ****        64.7500  17.5000  27.2500 Du        
   3619 ****        64.7500  17.5000  27.7500 Du        
   3620 ****        64.7500  17.5000  28.0000 Du        
   3621 ****        64.7500  17.5000  28.2500 Du        
   3622 ****        64.7500  17.5000  29.0000 Du        
   3623 ****        64.7500  17.5000  29.2500 Du        
   3624 ****        64.7500  17.5000  29.5000 Du        
   3625 ****        64.7500  17.5000  29.7500 Du        
   3626 ****        64.7500  17.5000  30.0000 Du        
   3627 ****        64.7500  17.5000  30.2500 Du        
   3628 ****        64.7500  17.5000  30.5000 Du        
   3629 ****        64.7500  17.5000  30.7500 Du        
   3630 ****        64.7500  17.5000  31.0000 Du        
   3631 ****        64.7500  17.7500  27.0000 Du        
   3632 ****        64.7500  17.7500  27.7500 Du        
   3633 ****        64.7500  17.7500  28.0000 Du        
   3634 ****        64.7500  17.7500  28.2500 Du        
   3635 ****        64.7500  17.7500  29.0000 Du        
   3636 ****        64.7500  17.7500  29.2500 Du        
   3637 ****        64.7500  17.7500  29.5000 Du        
   3638 ****        64.7500  17.7500  29.7500 Du        
   3639 ****        64.7500  17.7500  30.0000 Du        
   3640 ****        64.7500  17.7500  30.2500 Du        
   3641 ****        64.7500  17.7500  30.5000 Du        
   3642 ****        64.7500  17.7500  30.7500 Du        
   3643 ****        64.7500  17.7500  31.0000 Du        
   3644 ****        64.7500  18.0000  29.7500 Du        
   3645 ****        64.7500  18.0000  30.0000 Du        
   3646 ****        64.7500  18.0000  30.2500 Du        
   3647 ****        64.7500  18.0000  30.5000 Du        
   3648 ****        64.7500  18.0000  30.7500 Du        
   3649 ****        64.7500  18.0000  31.0000 Du        
   3650 ****        64.7500  18.2500  30.2500 Du        
   3651 ****        64.7500  18.2500  30.5000 Du        
   3652 ****        64.7500  18.2500  30.7500 Du        
   3653 ****        64.7500  19.2500  25.7500 Du        
   3654 ****        64.7500  19.2500  26.0000 Du        
   3655 ****        64.7500  19.2500  26.2500 Du        
   3656 ****        64.7500  19.5000  25.7500 Du        
   3657 ****        64.7500  19.5000  26.0000 Du        
   3658 ****        64.7500  19.5000  26.2500 Du        
   3659 ****        64.7500  19.7500  25.7500 Du        
   3660 ****        64.7500  19.7500  26.0000 Du        
   3661 ****        64.7500  19.7500  26.2500 Du        
   3662 ****        64.7500  20.0000  25.7500 Du        
   3663 ****        64.7500  20.0000  26.0000 Du        
   3664 ****        64.7500  20.0000  26.2500 Du        
   3665 ****        64.7500  20.2500  25.7500 Du        
   3666 ****        64.7500  20.2500  26.0000 Du        
   3667 ****        64.7500  20.2500  26.2500 Du        
   3668 ****        64.7500  20.5000  25.7500 Du        
   3669 ****        64.7500  20.5000  26.0000 Du        
   3670 ****        64.7500  20.7500  25.7500 Du        
   3671 ****        64.7500  20.7500  26.0000 Du        
   3672 ****        64.7500  21.0000  25.7500 Du        
   3673 ****        64.7500  21.0000  26.0000 Du        
   3674 ****        64.7500  21.2500  25.7500 Du        
   3675 ****        64.7500  21.2500  26.0000 Du        
   3676 ****        64.7500  23.0000  25.2500 Du        
   3677 ****        64.7500  23.2500  25.0000 Du        
   3678 ****        64.7500  23.2500  25.2500 Du        
   3679 ****        65.0000  13.7500  31.0000 Du        
   3680 ****        65.0000  13.7500  31.2500 Du        
   3681 ****        65.0000  14.0000  30.2500 Du        
   3682 ****        65.0000  14.0000  30.5000 Du        
   3683 ****        65.0000  14.0000  30.7500 Du        
   3684 ****        65.0000  14.0000  31.0000 Du        
   3685 ****        65.0000  14.0000  31.2500 Du        
   3686 ****        65.0000  14.0000  31.5000 Du        
   3687 ****        65.0000  14.0000  31.7500 Du        
   3688 ****        65.0000  14.0000  32.0000 Du        
   3689 ****        65.0000  14.2500  30.0000 Du        
   3690 ****        65.0000  14.2500  30.2500 Du        
   3691 ****        65.0000  14.2500  30.5000 Du        
   3692 ****        65.0000  14.2500  30.7500 Du        
   3693 ****        65.0000  14.2500  31.0000 Du        
   3694 ****        65.0000  14.2500  31.2500 Du        
   3695 ****        65.0000  14.2500  31.5000 Du        
   3696 ****        65.0000  14.2500  31.7500 Du        
   3697 ****        65.0000  14.2500  32.0000 Du        
   3698 ****        65.0000  14.5000  29.7500 Du        
   3699 ****        65.0000  14.5000  30.0000 Du        
   3700 ****        65.0000  14.5000  30.2500 Du        
   3701 ****        65.0000  14.5000  30.5000 Du        
   3702 ****        65.0000  14.5000  30.7500 Du        
   3703 ****        65.0000  14.5000  31.0000 Du        
   3704 ****        65.0000  14.5000  31.2500 Du        
   3705 ****        65.0000  14.5000  31.5000 Du        
   3706 ****        65.0000  14.5000  31.7500 Du        
   3707 ****        65.0000  14.5000  32.0000 Du        
   3708 ****        65.0000  14.7500  29.7500 Du        
   3709 ****        65.0000  14.7500  30.0000 Du        
   3710 ****        65.0000  14.7500  30.2500 Du        
   3711 ****        65.0000  14.7500  30.5000 Du        
   3712 ****        65.0000  14.7500  30.7500 Du        
   3713 ****        65.0000  14.7500  31.0000 Du        
   3714 ****        65.0000  14.7500  31.2500 Du        
   3715 ****        65.0000  14.7500  31.5000 Du        
   3716 ****        65.0000  14.7500  31.7500 Du        
   3717 ****        65.0000  14.7500  32.0000 Du        
   3718 ****        65.0000  15.0000  29.5000 Du        
   3719 ****        65.0000  15.0000  29.7500 Du        
   3720 ****        65.0000  15.0000  30.0000 Du        
   3721 ****        65.0000  15.0000  30.2500 Du        
   3722 ****        65.0000  15.0000  30.5000 Du        
   3723 ****        65.0000  15.0000  30.7500 Du        
   3724 ****        65.0000  15.0000  31.0000 Du        
   3725 ****        65.0000  15.0000  31.2500 Du        
   3726 ****        65.0000  15.0000  31.5000 Du        
   3727 ****        65.0000  15.0000  31.7500 Du        
   3728 ****        65.0000  15.0000  32.0000 Du        
   3729 ****        65.0000  15.2500  29.5000 Du        
   3730 ****        65.0000  15.2500  29.7500 Du        
   3731 ****        65.0000  15.2500  30.0000 Du        
   3732 ****        65.0000  15.2500  30.2500 Du        
   3733 ****        65.0000  15.2500  30.5000 Du        
   3734 ****        65.0000  15.2500  30.7500 Du        
   3735 ****        65.0000  15.2500  31.0000 Du        
   3736 ****        65.0000  15.2500  31.2500 Du        
   3737 ****        65.0000  15.2500  31.5000 Du        
   3738 ****        65.0000  15.2500  31.7500 Du        
   3739 ****        65.0000  15.5000  29.2500 Du        
   3740 ****        65.0000  15.5000  29.5000 Du        
   3741 ****        65.0000  15.5000  29.7500 Du        
   3742 ****        65.0000  15.5000  30.0000 Du        
   3743 ****        65.0000  15.5000  30.2500 Du        
   3744 ****        65.0000  15.5000  30.5000 Du        
   3745 ****        65.0000  15.5000  30.7500 Du        
   3746 ****        65.0000  15.5000  31.0000 Du        
   3747 ****        65.0000  15.5000  31.2500 Du        
   3748 ****        65.0000  15.5000  31.5000 Du        
   3749 ****        65.0000  15.5000  31.7500 Du        
   3750 ****        65.0000  15.7500  29.0000 Du        
   3751 ****        65.0000  15.7500  29.2500 Du        
   3752 ****        65.0000  15.7500  29.5000 Du        
   3753 ****        65.0000  15.7500  29.7500 Du        
   3754 ****        65.0000  15.7500  30.0000 Du        
   3755 ****        65.0000  15.7500  30.2500 Du        
   3756 ****        65.0000  15.7500  30.5000 Du        
   3757 ****        65.0000  15.7500  30.7500 Du        
   3758 ****        65.0000  15.7500  31.0000 Du        
   3759 ****        65.0000  15.7500  31.2500 Du        
   3760 ****        65.0000  15.7500  31.5000 Du        
   3761 ****        65.0000  16.0000  26.5000 Du        
   3762 ****        65.0000  16.0000  26.7500 Du        
   3763 ****        65.0000  16.0000  27.0000 Du        
   3764 ****        65.0000  16.0000  27.2500 Du        
   3765 ****        65.0000  16.0000  28.7500 Du        
   3766 ****        65.0000  16.0000  29.0000 Du        
   3767 ****        65.0000  16.0000  29.2500 Du        
   3768 ****        65.0000  16.0000  29.5000 Du        
   3769 ****        65.0000  16.0000  29.7500 Du        
   3770 ****        65.0000  16.0000  30.0000 Du        
   3771 ****        65.0000  16.0000  30.2500 Du        
   3772 ****        65.0000  16.0000  30.5000 Du        
   3773 ****        65.0000  16.0000  30.7500 Du        
   3774 ****        65.0000  16.0000  31.0000 Du        
   3775 ****        65.0000  16.0000  31.2500 Du        
   3776 ****        65.0000  16.2500  26.5000 Du        
   3777 ****        65.0000  16.2500  26.7500 Du        
   3778 ****        65.0000  16.2500  27.0000 Du        
   3779 ****        65.0000  16.2500  27.2500 Du        
   3780 ****        65.0000  16.2500  28.7500 Du        
   3781 ****        65.0000  16.2500  29.0000 Du        
   3782 ****        65.0000  16.2500  29.2500 Du        
   3783 ****        65.0000  16.2500  29.5000 Du        
   3784 ****        65.0000  16.2500  29.7500 Du        
   3785 ****        65.0000  16.2500  30.0000 Du        
   3786 ****        65.0000  16.2500  30.2500 Du        
   3787 ****        65.0000  16.2500  30.5000 Du        
   3788 ****        65.0000  16.2500  30.7500 Du        
   3789 ****        65.0000  16.2500  31.0000 Du        
   3790 ****        65.0000  16.2500  31.2500 Du        
   3791 ****        65.0000  16.5000  26.2500 Du        
   3792 ****        65.0000  16.5000  26.5000 Du        
   3793 ****        65.0000  16.5000  26.7500 Du        
   3794 ****        65.0000  16.5000  27.0000 Du        
   3795 ****        65.0000  16.5000  27.2500 Du        
   3796 ****        65.0000  16.5000  29.0000 Du        
   3797 ****        65.0000  16.5000  29.5000 Du        
   3798 ****        65.0000  16.5000  29.7500 Du        
   3799 ****        65.0000  16.5000  30.0000 Du        
   3800 ****        65.0000  16.5000  30.2500 Du        
   3801 ****        65.0000  16.5000  30.5000 Du        
   3802 ****        65.0000  16.5000  30.7500 Du        
   3803 ****        65.0000  16.5000  31.0000 Du        
   3804 ****        65.0000  16.7500  26.2500 Du        
   3805 ****        65.0000  16.7500  26.5000 Du        
   3806 ****        65.0000  16.7500  26.7500 Du        
   3807 ****        65.0000  16.7500  27.0000 Du        
   3808 ****        65.0000  16.7500  27.2500 Du        
   3809 ****        65.0000  16.7500  27.5000 Du        
   3810 ****        65.0000  16.7500  29.0000 Du        
   3811 ****        65.0000  16.7500  29.2500 Du        
   3812 ****        65.0000  16.7500  29.5000 Du        
   3813 ****        65.0000  16.7500  29.7500 Du        
   3814 ****        65.0000  16.7500  30.0000 Du        
   3815 ****        65.0000  16.7500  30.2500 Du        
   3816 ****        65.0000  16.7500  30.5000 Du        
   3817 ****        65.0000  16.7500  30.7500 Du        
   3818 ****        65.0000  16.7500  31.0000 Du        
   3819 ****        65.0000  17.0000  26.2500 Du        
   3820 ****        65.0000  17.0000  26.5000 Du        
   3821 ****        65.0000  17.0000  26.7500 Du        
   3822 ****        65.0000  17.0000  27.0000 Du        
   3823 ****        65.0000  17.0000  27.2500 Du        
   3824 ****        65.0000  17.0000  27.5000 Du        
   3825 ****        65.0000  17.0000  28.2500 Du        
   3826 ****        65.0000  17.0000  29.0000 Du        
   3827 ****        65.0000  17.0000  29.2500 Du        
   3828 ****        65.0000  17.0000  29.5000 Du        
   3829 ****        65.0000  17.0000  29.7500 Du        
   3830 ****        65.0000  17.0000  30.0000 Du        
   3831 ****        65.0000  17.0000  30.2500 Du        
   3832 ****        65.0000  17.0000  30.5000 Du        
   3833 ****        65.0000  17.0000  30.7500 Du        
   3834 ****        65.0000  17.2500  26.2500 Du        
   3835 ****        65.0000  17.2500  26.5000 Du        
   3836 ****        65.0000  17.2500  26.7500 Du        
   3837 ****        65.0000  17.2500  27.0000 Du        
   3838 ****        65.0000  17.2500  27.2500 Du        
   3839 ****        65.0000  17.2500  28.0000 Du        
   3840 ****        65.0000  17.2500  28.2500 Du        
   3841 ****        65.0000  17.2500  28.7500 Du        
   3842 ****        65.0000  17.2500  29.0000 Du        
   3843 ****        65.0000  17.2500  29.2500 Du        
   3844 ****        65.0000  17.2500  29.5000 Du        
   3845 ****        65.0000  17.2500  29.7500 Du        
   3846 ****        65.0000  17.2500  30.0000 Du        
   3847 ****        65.0000  17.2500  30.2500 Du        
   3848 ****        65.0000  17.2500  30.5000 Du        
   3849 ****        65.0000  17.2500  30.7500 Du        
   3850 ****        65.0000  17.5000  26.2500 Du        
   3851 ****        65.0000  17.5000  26.5000 Du        
   3852 ****        65.0000  17.5000  26.7500 Du        
   3853 ****        65.0000  17.5000  27.0000 Du        
   3854 ****        65.0000  17.5000  27.2500 Du        
   3855 ****        65.0000  17.5000  27.7500 Du        
   3856 ****        65.0000  17.5000  28.0000 Du        
   3857 ****        65.0000  17.5000  28.2500 Du        
   3858 ****        65.0000  17.5000  29.0000 Du        
   3859 ****        65.0000  17.5000  29.2500 Du        
   3860 ****        65.0000  17.5000  29.5000 Du        
   3861 ****        65.0000  17.5000  29.7500 Du        
   3862 ****        65.0000  17.5000  30.0000 Du        
   3863 ****        65.0000  17.5000  30.2500 Du        
   3864 ****        65.0000  17.5000  30.5000 Du        
   3865 ****        65.0000  17.5000  30.7500 Du        
   3866 ****        65.0000  17.7500  26.2500 Du        
   3867 ****        65.0000  17.7500  26.5000 Du        
   3868 ****        65.0000  17.7500  26.7500 Du        
   3869 ****        65.0000  17.7500  27.0000 Du        
   3870 ****        65.0000  17.7500  27.2500 Du        
   3871 ****        65.0000  17.7500  27.5000 Du        
   3872 ****        65.0000  17.7500  27.7500 Du        
   3873 ****        65.0000  17.7500  28.0000 Du        
   3874 ****        65.0000  17.7500  28.2500 Du        
   3875 ****        65.0000  17.7500  28.7500 Du        
   3876 ****        65.0000  17.7500  29.0000 Du        
   3877 ****        65.0000  17.7500  29.2500 Du        
   3878 ****        65.0000  17.7500  29.5000 Du        
   3879 ****        65.0000  17.7500  29.7500 Du        
   3880 ****        65.0000  17.7500  30.0000 Du        
   3881 ****        65.0000  17.7500  30.2500 Du        
   3882 ****        65.0000  17.7500  30.5000 Du        
   3883 ****        65.0000  17.7500  30.7500 Du        
   3884 ****        65.0000  18.0000  26.0000 Du        
   3885 ****        65.0000  18.0000  26.2500 Du        
   3886 ****        65.0000  18.0000  26.5000 Du        
   3887 ****        65.0000  18.0000  26.7500 Du        
   3888 ****        65.0000  18.0000  27.0000 Du        
   3889 ****        65.0000  18.0000  27.2500 Du        
   3890 ****        65.0000  18.0000  27.5000 Du        
   3891 ****        65.0000  18.0000  27.7500 Du        
   3892 ****        65.0000  18.0000  28.0000 Du        
   3893 ****        65.0000  18.0000  28.7500 Du        
   3894 ****        65.0000  18.0000  29.0000 Du        
   3895 ****        65.0000  18.0000  29.2500 Du        
   3896 ****        65.0000  18.0000  29.5000 Du        
   3897 ****        65.0000  18.0000  29.7500 Du        
   3898 ****        65.0000  18.0000  30.0000 Du        
   3899 ****        65.0000  18.0000  30.2500 Du        
   3900 ****        65.0000  18.0000  30.5000 Du        
   3901 ****        65.0000  18.0000  30.7500 Du        
   3902 ****        65.0000  18.2500  26.0000 Du        
   3903 ****        65.0000  18.2500  26.2500 Du        
   3904 ****        65.0000  18.2500  26.5000 Du        
   3905 ****        65.0000  18.2500  26.7500 Du        
   3906 ****        65.0000  18.2500  27.0000 Du        
   3907 ****        65.0000  18.2500  27.2500 Du        
   3908 ****        65.0000  18.2500  29.7500 Du        
   3909 ****        65.0000  18.2500  30.0000 Du        
   3910 ****        65.0000  18.2500  30.2500 Du        
   3911 ****        65.0000  18.2500  30.5000 Du        
   3912 ****        65.0000  18.5000  26.0000 Du        
   3913 ****        65.0000  18.5000  26.2500 Du        
   3914 ****        65.0000  18.5000  26.5000 Du        
   3915 ****        65.0000  18.5000  26.7500 Du        
   3916 ****        65.0000  18.5000  27.0000 Du        
   3917 ****        65.0000  18.7500  25.7500 Du        
   3918 ****        65.0000  18.7500  26.0000 Du        
   3919 ****        65.0000  18.7500  26.2500 Du        
   3920 ****        65.0000  18.7500  26.5000 Du        
   3921 ****        65.0000  18.7500  26.7500 Du        
   3922 ****        65.0000  18.7500  27.0000 Du        
   3923 ****        65.0000  19.0000  25.7500 Du        
   3924 ****        65.0000  19.0000  26.0000 Du        
   3925 ****        65.0000  19.0000  26.2500 Du        
   3926 ****        65.0000  19.0000  26.5000 Du        
   3927 ****        65.0000  19.0000  26.7500 Du        
   3928 ****        65.0000  19.0000  27.0000 Du        
   3929 ****        65.0000  19.2500  25.5000 Du        
   3930 ****        65.0000  19.2500  25.7500 Du        
   3931 ****        65.0000  19.2500  26.0000 Du        
   3932 ****        65.0000  19.2500  26.2500 Du        
   3933 ****        65.0000  19.2500  26.5000 Du        
   3934 ****        65.0000  19.2500  26.7500 Du        
   3935 ****        65.0000  19.5000  25.5000 Du        
   3936 ****        65.0000  19.5000  25.7500 Du        
   3937 ****        65.0000  19.5000  26.0000 Du        
   3938 ****        65.0000  19.5000  26.2500 Du        
   3939 ****        65.0000  19.5000  26.5000 Du        
   3940 ****        65.0000  19.7500  25.5000 Du        
   3941 ****        65.0000  19.7500  25.7500 Du        
   3942 ****        65.0000  19.7500  26.0000 Du        
   3943 ****        65.0000  19.7500  26.2500 Du        
   3944 ****        65.0000  19.7500  26.5000 Du        
   3945 ****        65.0000  20.0000  25.5000 Du        
   3946 ****        65.0000  20.0000  25.7500 Du        
   3947 ****        65.0000  20.0000  26.0000 Du        
   3948 ****        65.0000  20.0000  26.2500 Du        
   3949 ****        65.0000  20.0000  26.5000 Du        
   3950 ****        65.0000  20.2500  25.5000 Du        
   3951 ****        65.0000  20.2500  25.7500 Du        
   3952 ****        65.0000  20.2500  26.0000 Du        
   3953 ****        65.0000  20.2500  26.2500 Du        
   3954 ****        65.0000  20.5000  25.7500 Du        
   3955 ****        65.0000  20.5000  26.0000 Du        
   3956 ****        65.0000  20.5000  26.2500 Du        
   3957 ****        65.0000  20.7500  25.7500 Du        
   3958 ****        65.0000  20.7500  26.0000 Du        
   3959 ****        65.0000  20.7500  26.2500 Du        
   3960 ****        65.0000  21.0000  25.7500 Du        
   3961 ****        65.2500  14.0000  30.5000 Du        
   3962 ****        65.2500  14.0000  30.7500 Du        
   3963 ****        65.2500  14.0000  31.0000 Du        
   3964 ****        65.2500  14.0000  31.2500 Du        
   3965 ****        65.2500  14.0000  31.5000 Du        
   3966 ****        65.2500  14.0000  31.7500 Du        
   3967 ****        65.2500  14.0000  32.0000 Du        
   3968 ****        65.2500  14.2500  30.0000 Du        
   3969 ****        65.2500  14.2500  30.2500 Du        
   3970 ****        65.2500  14.2500  30.5000 Du        
   3971 ****        65.2500  14.2500  30.7500 Du        
   3972 ****        65.2500  14.2500  31.0000 Du        
   3973 ****        65.2500  14.2500  31.2500 Du        
   3974 ****        65.2500  14.2500  31.5000 Du        
   3975 ****        65.2500  14.2500  31.7500 Du        
   3976 ****        65.2500  14.2500  32.0000 Du        
   3977 ****        65.2500  14.2500  32.2500 Du        
   3978 ****        65.2500  14.5000  30.0000 Du        
   3979 ****        65.2500  14.5000  30.2500 Du        
   3980 ****        65.2500  14.5000  30.5000 Du        
   3981 ****        65.2500  14.5000  30.7500 Du        
   3982 ****        65.2500  14.5000  31.0000 Du        
   3983 ****        65.2500  14.5000  31.2500 Du        
   3984 ****        65.2500  14.5000  31.5000 Du        
   3985 ****        65.2500  14.5000  31.7500 Du        
   3986 ****        65.2500  14.5000  32.0000 Du        
   3987 ****        65.2500  14.5000  32.2500 Du        
   3988 ****        65.2500  14.7500  29.7500 Du        
   3989 ****        65.2500  14.7500  30.0000 Du        
   3990 ****        65.2500  14.7500  30.2500 Du        
   3991 ****        65.2500  14.7500  30.5000 Du        
   3992 ****        65.2500  14.7500  30.7500 Du        
   3993 ****        65.2500  14.7500  31.0000 Du        
   3994 ****        65.2500  14.7500  31.2500 Du        
   3995 ****        65.2500  14.7500  31.5000 Du        
   3996 ****        65.2500  14.7500  31.7500 Du        
   3997 ****        65.2500  14.7500  32.0000 Du        
   3998 ****        65.2500  15.0000  29.5000 Du        
   3999 ****        65.2500  15.0000  29.7500 Du        
   4000 ****        65.2500  15.0000  30.0000 Du        
   4001 ****        65.2500  15.0000  30.2500 Du        
   4002 ****        65.2500  15.0000  30.5000 Du        
   4003 ****        65.2500  15.0000  30.7500 Du        
   4004 ****        65.2500  15.0000  31.0000 Du        
   4005 ****        65.2500  15.0000  31.2500 Du        
   4006 ****        65.2500  15.0000  31.5000 Du        
   4007 ****        65.2500  15.0000  31.7500 Du        
   4008 ****        65.2500  15.0000  32.0000 Du        
   4009 ****        65.2500  15.2500  29.5000 Du        
   4010 ****        65.2500  15.2500  29.7500 Du        
   4011 ****        65.2500  15.2500  30.0000 Du        
   4012 ****        65.2500  15.2500  30.2500 Du        
   4013 ****        65.2500  15.2500  30.5000 Du        
   4014 ****        65.2500  15.2500  30.7500 Du        
   4015 ****        65.2500  15.2500  31.0000 Du        
   4016 ****        65.2500  15.2500  31.2500 Du        
   4017 ****        65.2500  15.2500  31.5000 Du        
   4018 ****        65.2500  15.2500  31.7500 Du        
   4019 ****        65.2500  15.5000  29.5000 Du        
   4020 ****        65.2500  15.5000  29.7500 Du        
   4021 ****        65.2500  15.5000  30.0000 Du        
   4022 ****        65.2500  15.5000  30.2500 Du        
   4023 ****        65.2500  15.5000  30.5000 Du        
   4024 ****        65.2500  15.5000  30.7500 Du        
   4025 ****        65.2500  15.5000  31.0000 Du        
   4026 ****        65.2500  15.5000  31.2500 Du        
   4027 ****        65.2500  15.5000  31.5000 Du        
   4028 ****        65.2500  15.5000  31.7500 Du        
   4029 ****        65.2500  15.7500  29.0000 Du        
   4030 ****        65.2500  15.7500  29.5000 Du        
   4031 ****        65.2500  15.7500  29.7500 Du        
   4032 ****        65.2500  15.7500  30.0000 Du        
   4033 ****        65.2500  15.7500  30.2500 Du        
   4034 ****        65.2500  15.7500  30.5000 Du        
   4035 ****        65.2500  15.7500  30.7500 Du        
   4036 ****        65.2500  15.7500  31.0000 Du        
   4037 ****        65.2500  15.7500  31.2500 Du        
   4038 ****        65.2500  15.7500  31.5000 Du        
   4039 ****        65.2500  16.0000  26.7500 Du        
   4040 ****        65.2500  16.0000  27.0000 Du        
   4041 ****        65.2500  16.0000  27.2500 Du        
   4042 ****        65.2500  16.0000  29.0000 Du        
   4043 ****        65.2500  16.0000  29.5000 Du        
   4044 ****        65.2500  16.0000  29.7500 Du        
   4045 ****        65.2500  16.0000  30.0000 Du        
   4046 ****        65.2500  16.0000  30.2500 Du        
   4047 ****        65.2500  16.0000  30.5000 Du        
   4048 ****        65.2500  16.0000  30.7500 Du        
   4049 ****        65.2500  16.0000  31.0000 Du        
   4050 ****        65.2500  16.0000  31.2500 Du        
   4051 ****        65.2500  16.2500  26.5000 Du        
   4052 ****        65.2500  16.2500  26.7500 Du        
   4053 ****        65.2500  16.2500  27.0000 Du        
   4054 ****        65.2500  16.2500  27.2500 Du        
   4055 ****        65.2500  16.2500  29.5000 Du        
   4056 ****        65.2500  16.2500  29.7500 Du        
   4057 ****        65.2500  16.2500  30.0000 Du        
   4058 ****        65.2500  16.2500  30.2500 Du        
   4059 ****        65.2500  16.2500  30.5000 Du        
   4060 ****        65.2500  16.2500  30.7500 Du        
   4061 ****        65.2500  16.2500  31.0000 Du        
   4062 ****        65.2500  16.5000  26.5000 Du        
   4063 ****        65.2500  16.5000  26.7500 Du        
   4064 ****        65.2500  16.5000  27.0000 Du        
   4065 ****        65.2500  16.5000  27.2500 Du        
   4066 ****        65.2500  16.5000  29.5000 Du        
   4067 ****        65.2500  16.5000  29.7500 Du        
   4068 ****        65.2500  16.5000  30.0000 Du        
   4069 ****        65.2500  16.5000  30.2500 Du        
   4070 ****        65.2500  16.5000  30.5000 Du        
   4071 ****        65.2500  16.5000  30.7500 Du        
   4072 ****        65.2500  16.7500  26.2500 Du        
   4073 ****        65.2500  16.7500  26.5000 Du        
   4074 ****        65.2500  16.7500  26.7500 Du        
   4075 ****        65.2500  16.7500  27.0000 Du        
   4076 ****        65.2500  16.7500  27.2500 Du        
   4077 ****        65.2500  16.7500  29.0000 Du        
   4078 ****        65.2500  16.7500  29.2500 Du        
   4079 ****        65.2500  16.7500  29.5000 Du        
   4080 ****        65.2500  16.7500  29.7500 Du        
   4081 ****        65.2500  16.7500  30.0000 Du        
   4082 ****        65.2500  16.7500  30.2500 Du        
   4083 ****        65.2500  16.7500  30.5000 Du        
   4084 ****        65.2500  16.7500  30.7500 Du        
   4085 ****        65.2500  17.0000  26.2500 Du        
   4086 ****        65.2500  17.0000  26.5000 Du        
   4087 ****        65.2500  17.0000  26.7500 Du        
   4088 ****        65.2500  17.0000  27.0000 Du        
   4089 ****        65.2500  17.0000  27.2500 Du        
   4090 ****        65.2500  17.0000  29.0000 Du        
   4091 ****        65.2500  17.0000  29.2500 Du        
   4092 ****        65.2500  17.0000  29.5000 Du        
   4093 ****        65.2500  17.0000  29.7500 Du        
   4094 ****        65.2500  17.0000  30.0000 Du        
   4095 ****        65.2500  17.0000  30.2500 Du        
   4096 ****        65.2500  17.0000  30.5000 Du        
   4097 ****        65.2500  17.2500  26.2500 Du        
   4098 ****        65.2500  17.2500  26.5000 Du        
   4099 ****        65.2500  17.2500  26.7500 Du        
   4100 ****        65.2500  17.2500  27.0000 Du        
   4101 ****        65.2500  17.2500  27.2500 Du        
   4102 ****        65.2500  17.2500  29.0000 Du        
   4103 ****        65.2500  17.2500  29.2500 Du        
   4104 ****        65.2500  17.2500  29.5000 Du        
   4105 ****        65.2500  17.2500  29.7500 Du        
   4106 ****        65.2500  17.2500  30.0000 Du        
   4107 ****        65.2500  17.2500  30.2500 Du        
   4108 ****        65.2500  17.2500  30.5000 Du        
   4109 ****        65.2500  17.5000  26.2500 Du        
   4110 ****        65.2500  17.5000  26.5000 Du        
   4111 ****        65.2500  17.5000  26.7500 Du        
   4112 ****        65.2500  17.5000  27.0000 Du        
   4113 ****        65.2500  17.5000  27.2500 Du        
   4114 ****        65.2500  17.5000  28.2500 Du        
   4115 ****        65.2500  17.5000  29.0000 Du        
   4116 ****        65.2500  17.5000  29.2500 Du        
   4117 ****        65.2500  17.5000  29.5000 Du        
   4118 ****        65.2500  17.5000  29.7500 Du        
   4119 ****        65.2500  17.5000  30.0000 Du        
   4120 ****        65.2500  17.5000  30.2500 Du        
   4121 ****        65.2500  17.5000  30.5000 Du        
   4122 ****        65.2500  17.7500  26.2500 Du        
   4123 ****        65.2500  17.7500  26.5000 Du        
   4124 ****        65.2500  17.7500  26.7500 Du        
   4125 ****        65.2500  17.7500  27.0000 Du        
   4126 ****        65.2500  17.7500  27.2500 Du        
   4127 ****        65.2500  17.7500  29.0000 Du        
   4128 ****        65.2500  17.7500  29.2500 Du        
   4129 ****        65.2500  17.7500  29.5000 Du        
   4130 ****        65.2500  17.7500  29.7500 Du        
   4131 ****        65.2500  17.7500  30.0000 Du        
   4132 ****        65.2500  17.7500  30.2500 Du        
   4133 ****        65.2500  17.7500  30.5000 Du        
   4134 ****        65.2500  18.0000  26.0000 Du        
   4135 ****        65.2500  18.0000  26.2500 Du        
   4136 ****        65.2500  18.0000  26.5000 Du        
   4137 ****        65.2500  18.0000  26.7500 Du        
   4138 ****        65.2500  18.0000  27.0000 Du        
   4139 ****        65.2500  18.0000  27.2500 Du        
   4140 ****        65.2500  18.0000  29.0000 Du        
   4141 ****        65.2500  18.0000  29.2500 Du        
   4142 ****        65.2500  18.0000  29.5000 Du        
   4143 ****        65.2500  18.0000  29.7500 Du        
   4144 ****        65.2500  18.0000  30.0000 Du        
   4145 ****        65.2500  18.0000  30.2500 Du        
   4146 ****        65.2500  18.0000  30.5000 Du        
   4147 ****        65.2500  18.2500  26.0000 Du        
   4148 ****        65.2500  18.2500  26.2500 Du        
   4149 ****        65.2500  18.2500  26.5000 Du        
   4150 ****        65.2500  18.2500  26.7500 Du        
   4151 ****        65.2500  18.2500  27.0000 Du        
   4152 ****        65.2500  18.2500  27.2500 Du        
   4153 ****        65.2500  18.2500  29.5000 Du        
   4154 ****        65.2500  18.2500  29.7500 Du        
   4155 ****        65.2500  18.2500  30.0000 Du        
   4156 ****        65.2500  18.2500  30.2500 Du        
   4157 ****        65.2500  18.5000  26.0000 Du        
   4158 ****        65.2500  18.5000  26.2500 Du        
   4159 ****        65.2500  18.5000  26.5000 Du        
   4160 ****        65.2500  18.5000  26.7500 Du        
   4161 ****        65.2500  18.5000  27.0000 Du        
   4162 ****        65.2500  18.5000  27.2500 Du        
   4163 ****        65.2500  18.7500  25.7500 Du        
   4164 ****        65.2500  18.7500  26.0000 Du        
   4165 ****        65.2500  18.7500  26.2500 Du        
   4166 ****        65.2500  18.7500  26.5000 Du        
   4167 ****        65.2500  18.7500  26.7500 Du        
   4168 ****        65.2500  18.7500  27.0000 Du        
   4169 ****        65.2500  18.7500  27.2500 Du        
   4170 ****        65.2500  19.0000  25.5000 Du        
   4171 ****        65.2500  19.0000  25.7500 Du        
   4172 ****        65.2500  19.0000  26.0000 Du        
   4173 ****        65.2500  19.0000  26.2500 Du        
   4174 ****        65.2500  19.0000  26.5000 Du        
   4175 ****        65.2500  19.0000  26.7500 Du        
   4176 ****        65.2500  19.0000  27.0000 Du        
   4177 ****        65.2500  19.0000  27.2500 Du        
   4178 ****        65.2500  19.2500  25.5000 Du        
   4179 ****        65.2500  19.2500  25.7500 Du        
   4180 ****        65.2500  19.2500  26.0000 Du        
   4181 ****        65.2500  19.2500  26.2500 Du        
   4182 ****        65.2500  19.2500  26.5000 Du        
   4183 ****        65.2500  19.2500  26.7500 Du        
   4184 ****        65.2500  19.2500  27.0000 Du        
   4185 ****        65.2500  19.5000  25.5000 Du        
   4186 ****        65.2500  19.5000  25.7500 Du        
   4187 ****        65.2500  19.5000  26.0000 Du        
   4188 ****        65.2500  19.5000  26.2500 Du        
   4189 ****        65.2500  19.5000  26.5000 Du        
   4190 ****        65.2500  19.5000  26.7500 Du        
   4191 ****        65.2500  19.7500  25.5000 Du        
   4192 ****        65.2500  19.7500  25.7500 Du        
   4193 ****        65.2500  19.7500  26.0000 Du        
   4194 ****        65.2500  19.7500  26.2500 Du        
   4195 ****        65.2500  19.7500  26.5000 Du        
   4196 ****        65.2500  19.7500  26.7500 Du        
   4197 ****        65.2500  20.0000  25.5000 Du        
   4198 ****        65.2500  20.0000  25.7500 Du        
   4199 ****        65.2500  20.0000  26.0000 Du        
   4200 ****        65.2500  20.0000  26.2500 Du        
   4201 ****        65.2500  20.0000  26.5000 Du        
   4202 ****        65.2500  20.2500  25.5000 Du        
   4203 ****        65.2500  20.2500  25.7500 Du        
   4204 ****        65.2500  20.2500  26.0000 Du        
   4205 ****        65.2500  20.2500  26.2500 Du        
   4206 ****        65.2500  20.2500  26.5000 Du        
   4207 ****        65.2500  20.5000  25.7500 Du        
   4208 ****        65.2500  20.5000  26.0000 Du        
   4209 ****        65.2500  20.5000  26.2500 Du        
   4210 ****        65.5000  14.0000  30.5000 Du        
   4211 ****        65.5000  14.0000  30.7500 Du        
   4212 ****        65.5000  14.0000  31.0000 Du        
   4213 ****        65.5000  14.0000  31.2500 Du        
   4214 ****        65.5000  14.0000  31.5000 Du        
   4215 ****        65.5000  14.0000  31.7500 Du        
   4216 ****        65.5000  14.0000  32.0000 Du        
   4217 ****        65.5000  14.2500  30.2500 Du        
   4218 ****        65.5000  14.2500  30.5000 Du        
   4219 ****        65.5000  14.2500  30.7500 Du        
   4220 ****        65.5000  14.2500  31.0000 Du        
   4221 ****        65.5000  14.2500  31.2500 Du        
   4222 ****        65.5000  14.2500  31.5000 Du        
   4223 ****        65.5000  14.2500  31.7500 Du        
   4224 ****        65.5000  14.2500  32.0000 Du        
   4225 ****        65.5000  14.2500  32.2500 Du        
   4226 ****        65.5000  14.5000  30.0000 Du        
   4227 ****        65.5000  14.5000  30.2500 Du        
   4228 ****        65.5000  14.5000  30.5000 Du        
   4229 ****        65.5000  14.5000  30.7500 Du        
   4230 ****        65.5000  14.5000  31.0000 Du        
   4231 ****        65.5000  14.5000  31.2500 Du        
   4232 ****        65.5000  14.5000  31.5000 Du        
   4233 ****        65.5000  14.5000  31.7500 Du        
   4234 ****        65.5000  14.5000  32.0000 Du        
   4235 ****        65.5000  14.5000  32.2500 Du        
   4236 ****        65.5000  14.7500  29.7500 Du        
   4237 ****        65.5000  14.7500  30.0000 Du        
   4238 ****        65.5000  14.7500  30.2500 Du        
   4239 ****        65.5000  14.7500  30.5000 Du        
   4240 ****        65.5000  14.7500  30.7500 Du        
   4241 ****        65.5000  14.7500  31.0000 Du        
   4242 ****        65.5000  14.7500  31.2500 Du        
   4243 ****        65.5000  14.7500  31.5000 Du        
   4244 ****        65.5000  14.7500  31.7500 Du        
   4245 ****        65.5000  14.7500  32.0000 Du        
   4246 ****        65.5000  15.0000  29.5000 Du        
   4247 ****        65.5000  15.0000  29.7500 Du        
   4248 ****        65.5000  15.0000  30.0000 Du        
   4249 ****        65.5000  15.0000  30.2500 Du        
   4250 ****        65.5000  15.0000  30.5000 Du        
   4251 ****        65.5000  15.0000  30.7500 Du        
   4252 ****        65.5000  15.0000  31.0000 Du        
   4253 ****        65.5000  15.0000  31.2500 Du        
   4254 ****        65.5000  15.0000  31.5000 Du        
   4255 ****        65.5000  15.0000  31.7500 Du        
   4256 ****        65.5000  15.0000  32.0000 Du        
   4257 ****        65.5000  15.2500  29.5000 Du        
   4258 ****        65.5000  15.2500  29.7500 Du        
   4259 ****        65.5000  15.2500  30.0000 Du        
   4260 ****        65.5000  15.2500  30.2500 Du        
   4261 ****        65.5000  15.2500  30.5000 Du        
   4262 ****        65.5000  15.2500  30.7500 Du        
   4263 ****        65.5000  15.2500  31.0000 Du        
   4264 ****        65.5000  15.2500  31.2500 Du        
   4265 ****        65.5000  15.2500  31.5000 Du        
   4266 ****        65.5000  15.2500  31.7500 Du        
   4267 ****        65.5000  15.5000  29.7500 Du        
   4268 ****        65.5000  15.5000  30.0000 Du        
   4269 ****        65.5000  15.5000  30.2500 Du        
   4270 ****        65.5000  15.5000  30.5000 Du        
   4271 ****        65.5000  15.5000  30.7500 Du        
   4272 ****        65.5000  15.5000  31.0000 Du        
   4273 ****        65.5000  15.5000  31.2500 Du        
   4274 ****        65.5000  15.5000  31.5000 Du        
   4275 ****        65.5000  15.7500  29.7500 Du        
   4276 ****        65.5000  15.7500  30.0000 Du        
   4277 ****        65.5000  15.7500  30.2500 Du        
   4278 ****        65.5000  15.7500  30.5000 Du        
   4279 ****        65.5000  15.7500  30.7500 Du        
   4280 ****        65.5000  15.7500  31.0000 Du        
   4281 ****        65.5000  15.7500  31.2500 Du        
   4282 ****        65.5000  16.0000  26.7500 Du        
   4283 ****        65.5000  16.0000  27.0000 Du        
   4284 ****        65.5000  16.0000  27.2500 Du        
   4285 ****        65.5000  16.0000  29.0000 Du        
   4286 ****        65.5000  16.0000  29.2500 Du        
   4287 ****        65.5000  16.0000  29.5000 Du        
   4288 ****        65.5000  16.0000  29.7500 Du        
   4289 ****        65.5000  16.0000  30.0000 Du        
   4290 ****        65.5000  16.0000  30.2500 Du        
   4291 ****        65.5000  16.0000  30.5000 Du        
   4292 ****        65.5000  16.0000  30.7500 Du        
   4293 ****        65.5000  16.0000  31.0000 Du        
   4294 ****        65.5000  16.2500  26.7500 Du        
   4295 ****        65.5000  16.2500  27.0000 Du        
   4296 ****        65.5000  16.2500  27.2500 Du        
   4297 ****        65.5000  16.2500  29.2500 Du        
   4298 ****        65.5000  16.2500  29.7500 Du        
   4299 ****        65.5000  16.2500  30.0000 Du        
   4300 ****        65.5000  16.2500  30.2500 Du        
   4301 ****        65.5000  16.2500  30.5000 Du        
   4302 ****        65.5000  16.2500  30.7500 Du        
   4303 ****        65.5000  16.5000  26.5000 Du        
   4304 ****        65.5000  16.5000  26.7500 Du        
   4305 ****        65.5000  16.5000  27.0000 Du        
   4306 ****        65.5000  16.5000  27.2500 Du        
   4307 ****        65.5000  16.5000  29.5000 Du        
   4308 ****        65.5000  16.5000  29.7500 Du        
   4309 ****        65.5000  16.5000  30.0000 Du        
   4310 ****        65.5000  16.5000  30.2500 Du        
   4311 ****        65.5000  16.5000  30.5000 Du        
   4312 ****        65.5000  16.7500  26.5000 Du        
   4313 ****        65.5000  16.7500  26.7500 Du        
   4314 ****        65.5000  16.7500  27.0000 Du        
   4315 ****        65.5000  16.7500  27.2500 Du        
   4316 ****        65.5000  16.7500  29.2500 Du        
   4317 ****        65.5000  16.7500  29.5000 Du        
   4318 ****        65.5000  16.7500  29.7500 Du        
   4319 ****        65.5000  16.7500  30.0000 Du        
   4320 ****        65.5000  16.7500  30.2500 Du        
   4321 ****        65.5000  16.7500  30.5000 Du        
   4322 ****        65.5000  17.0000  26.2500 Du        
   4323 ****        65.5000  17.0000  26.5000 Du        
   4324 ****        65.5000  17.0000  26.7500 Du        
   4325 ****        65.5000  17.0000  27.0000 Du        
   4326 ****        65.5000  17.0000  27.2500 Du        
   4327 ****        65.5000  17.0000  29.2500 Du        
   4328 ****        65.5000  17.0000  29.5000 Du        
   4329 ****        65.5000  17.0000  29.7500 Du        
   4330 ****        65.5000  17.0000  30.0000 Du        
   4331 ****        65.5000  17.0000  30.2500 Du        
   4332 ****        65.5000  17.2500  26.2500 Du        
   4333 ****        65.5000  17.2500  26.5000 Du        
   4334 ****        65.5000  17.2500  26.7500 Du        
   4335 ****        65.5000  17.2500  27.0000 Du        
   4336 ****        65.5000  17.2500  27.2500 Du        
   4337 ****        65.5000  17.2500  29.5000 Du        
   4338 ****        65.5000  17.2500  29.7500 Du        
   4339 ****        65.5000  17.2500  30.0000 Du        
   4340 ****        65.5000  17.2500  30.2500 Du        
   4341 ****        65.5000  17.5000  26.2500 Du        
   4342 ****        65.5000  17.5000  26.5000 Du        
   4343 ****        65.5000  17.5000  26.7500 Du        
   4344 ****        65.5000  17.5000  27.0000 Du        
   4345 ****        65.5000  17.5000  27.2500 Du        
   4346 ****        65.5000  17.5000  29.0000 Du        
   4347 ****        65.5000  17.5000  29.2500 Du        
   4348 ****        65.5000  17.5000  29.5000 Du        
   4349 ****        65.5000  17.5000  29.7500 Du        
   4350 ****        65.5000  17.5000  30.0000 Du        
   4351 ****        65.5000  17.7500  26.2500 Du        
   4352 ****        65.5000  17.7500  26.5000 Du        
   4353 ****        65.5000  17.7500  26.7500 Du        
   4354 ****        65.5000  17.7500  27.0000 Du        
   4355 ****        65.5000  17.7500  27.2500 Du        
   4356 ****        65.5000  17.7500  27.5000 Du        
   4357 ****        65.5000  17.7500  29.0000 Du        
   4358 ****        65.5000  17.7500  29.2500 Du        
   4359 ****        65.5000  17.7500  29.5000 Du        
   4360 ****        65.5000  17.7500  29.7500 Du        
   4361 ****        65.5000  17.7500  30.0000 Du        
   4362 ****        65.5000  17.7500  30.2500 Du        
   4363 ****        65.5000  18.0000  26.0000 Du        
   4364 ****        65.5000  18.0000  26.2500 Du        
   4365 ****        65.5000  18.0000  26.5000 Du        
   4366 ****        65.5000  18.0000  26.7500 Du        
   4367 ****        65.5000  18.0000  27.0000 Du        
   4368 ****        65.5000  18.0000  27.2500 Du        
   4369 ****        65.5000  18.0000  27.5000 Du        
   4370 ****        65.5000  18.0000  29.0000 Du        
   4371 ****        65.5000  18.0000  29.2500 Du        
   4372 ****        65.5000  18.0000  29.5000 Du        
   4373 ****        65.5000  18.0000  29.7500 Du        
   4374 ****        65.5000  18.0000  30.0000 Du        
   4375 ****        65.5000  18.2500  26.0000 Du        
   4376 ****        65.5000  18.2500  26.2500 Du        
   4377 ****        65.5000  18.2500  26.5000 Du        
   4378 ****        65.5000  18.2500  26.7500 Du        
   4379 ****        65.5000  18.2500  27.0000 Du        
   4380 ****        65.5000  18.2500  27.2500 Du        
   4381 ****        65.5000  18.2500  27.5000 Du        
   4382 ****        65.5000  18.2500  29.7500 Du        
   4383 ****        65.5000  18.5000  26.0000 Du        
   4384 ****        65.5000  18.5000  26.2500 Du        
   4385 ****        65.5000  18.5000  26.5000 Du        
   4386 ****        65.5000  18.5000  26.7500 Du        
   4387 ****        65.5000  18.5000  27.0000 Du        
   4388 ****        65.5000  18.5000  27.2500 Du        
   4389 ****        65.5000  18.7500  25.7500 Du        
   4390 ****        65.5000  18.7500  26.0000 Du        
   4391 ****        65.5000  18.7500  26.2500 Du        
   4392 ****        65.5000  18.7500  26.5000 Du        
   4393 ****        65.5000  18.7500  26.7500 Du        
   4394 ****        65.5000  18.7500  27.0000 Du        
   4395 ****        65.5000  18.7500  27.2500 Du        
   4396 ****        65.5000  19.0000  25.5000 Du        
   4397 ****        65.5000  19.0000  25.7500 Du        
   4398 ****        65.5000  19.0000  26.0000 Du        
   4399 ****        65.5000  19.0000  26.2500 Du        
   4400 ****        65.5000  19.0000  26.5000 Du        
   4401 ****        65.5000  19.0000  26.7500 Du        
   4402 ****        65.5000  19.0000  27.0000 Du        
   4403 ****        65.5000  19.0000  27.2500 Du        
   4404 ****        65.5000  19.2500  25.2500 Du        
   4405 ****        65.5000  19.2500  25.5000 Du        
   4406 ****        65.5000  19.2500  25.7500 Du        
   4407 ****        65.5000  19.2500  26.0000 Du        
   4408 ****        65.5000  19.2500  26.2500 Du        
   4409 ****        65.5000  19.2500  26.5000 Du        
   4410 ****        65.5000  19.2500  26.7500 Du        
   4411 ****        65.5000  19.2500  27.0000 Du        
   4412 ****        65.5000  19.2500  27.2500 Du        
   4413 ****        65.5000  19.5000  25.2500 Du        
   4414 ****        65.5000  19.5000  25.5000 Du        
   4415 ****        65.5000  19.5000  25.7500 Du        
   4416 ****        65.5000  19.5000  26.0000 Du        
   4417 ****        65.5000  19.5000  26.2500 Du        
   4418 ****        65.5000  19.5000  26.5000 Du        
   4419 ****        65.5000  19.5000  26.7500 Du        
   4420 ****        65.5000  19.5000  27.0000 Du        
   4421 ****        65.5000  19.7500  25.2500 Du        
   4422 ****        65.5000  19.7500  25.5000 Du        
   4423 ****        65.5000  19.7500  25.7500 Du        
   4424 ****        65.5000  19.7500  26.0000 Du        
   4425 ****        65.5000  19.7500  26.2500 Du        
   4426 ****        65.5000  19.7500  26.5000 Du        
   4427 ****        65.5000  19.7500  26.7500 Du        
   4428 ****        65.5000  19.7500  27.0000 Du        
   4429 ****        65.5000  20.0000  25.2500 Du        
   4430 ****        65.5000  20.0000  25.5000 Du        
   4431 ****        65.5000  20.0000  25.7500 Du        
   4432 ****        65.5000  20.0000  26.0000 Du        
   4433 ****        65.5000  20.0000  26.2500 Du        
   4434 ****        65.5000  20.0000  26.5000 Du        
   4435 ****        65.5000  20.0000  26.7500 Du        
   4436 ****        65.5000  20.2500  25.5000 Du        
   4437 ****        65.5000  20.2500  25.7500 Du        
   4438 ****        65.5000  20.2500  26.0000 Du        
   4439 ****        65.5000  20.2500  26.2500 Du        
   4440 ****        65.5000  20.2500  26.5000 Du        
   4441 ****        65.5000  20.2500  26.7500 Du        
   4442 ****        65.5000  20.5000  25.7500 Du        
   4443 ****        65.5000  20.5000  26.0000 Du        
   4444 ****        65.7500  14.0000  30.5000 Du        
   4445 ****        65.7500  14.0000  30.7500 Du        
   4446 ****        65.7500  14.0000  31.0000 Du        
   4447 ****        65.7500  14.0000  31.2500 Du        
   4448 ****        65.7500  14.0000  31.5000 Du        
   4449 ****        65.7500  14.0000  31.7500 Du        
   4450 ****        65.7500  14.0000  32.0000 Du        
   4451 ****        65.7500  14.0000  32.2500 Du        
   4452 ****        65.7500  14.2500  30.2500 Du        
   4453 ****        65.7500  14.2500  30.5000 Du        
   4454 ****        65.7500  14.2500  30.7500 Du        
   4455 ****        65.7500  14.2500  31.0000 Du        
   4456 ****        65.7500  14.2500  31.2500 Du        
   4457 ****        65.7500  14.2500  31.5000 Du        
   4458 ****        65.7500  14.2500  31.7500 Du        
   4459 ****        65.7500  14.2500  32.0000 Du        
   4460 ****        65.7500  14.2500  32.2500 Du        
   4461 ****        65.7500  14.5000  30.0000 Du        
   4462 ****        65.7500  14.5000  30.2500 Du        
   4463 ****        65.7500  14.5000  30.5000 Du        
   4464 ****        65.7500  14.5000  30.7500 Du        
   4465 ****        65.7500  14.5000  31.0000 Du        
   4466 ****        65.7500  14.5000  31.2500 Du        
   4467 ****        65.7500  14.5000  31.5000 Du        
   4468 ****        65.7500  14.5000  31.7500 Du        
   4469 ****        65.7500  14.5000  32.0000 Du        
   4470 ****        65.7500  14.5000  32.2500 Du        
   4471 ****        65.7500  14.7500  29.7500 Du        
   4472 ****        65.7500  14.7500  30.0000 Du        
   4473 ****        65.7500  14.7500  30.2500 Du        
   4474 ****        65.7500  14.7500  30.5000 Du        
   4475 ****        65.7500  14.7500  30.7500 Du        
   4476 ****        65.7500  14.7500  31.0000 Du        
   4477 ****        65.7500  14.7500  31.2500 Du        
   4478 ****        65.7500  14.7500  31.5000 Du        
   4479 ****        65.7500  14.7500  31.7500 Du        
   4480 ****        65.7500  14.7500  32.0000 Du        
   4481 ****        65.7500  14.7500  32.2500 Du        
   4482 ****        65.7500  15.0000  29.5000 Du        
   4483 ****        65.7500  15.0000  29.7500 Du        
   4484 ****        65.7500  15.0000  30.0000 Du        
   4485 ****        65.7500  15.0000  30.2500 Du        
   4486 ****        65.7500  15.0000  30.5000 Du        
   4487 ****        65.7500  15.0000  30.7500 Du        
   4488 ****        65.7500  15.0000  31.0000 Du        
   4489 ****        65.7500  15.0000  31.2500 Du        
   4490 ****        65.7500  15.0000  31.5000 Du        
   4491 ****        65.7500  15.0000  31.7500 Du        
   4492 ****        65.7500  15.0000  32.0000 Du        
   4493 ****        65.7500  15.2500  29.5000 Du        
   4494 ****        65.7500  15.2500  29.7500 Du        
   4495 ****        65.7500  15.2500  30.0000 Du        
   4496 ****        65.7500  15.2500  30.2500 Du        
   4497 ****        65.7500  15.2500  30.5000 Du        
   4498 ****        65.7500  15.2500  30.7500 Du        
   4499 ****        65.7500  15.2500  31.0000 Du        
   4500 ****        65.7500  15.2500  31.2500 Du        
   4501 ****        65.7500  15.2500  31.5000 Du        
   4502 ****        65.7500  15.2500  31.7500 Du        
   4503 ****        65.7500  15.5000  29.2500 Du        
   4504 ****        65.7500  15.5000  29.5000 Du        
   4505 ****        65.7500  15.5000  29.7500 Du        
   4506 ****        65.7500  15.5000  30.0000 Du        
   4507 ****        65.7500  15.5000  30.2500 Du        
   4508 ****        65.7500  15.5000  30.5000 Du        
   4509 ****        65.7500  15.5000  30.7500 Du        
   4510 ****        65.7500  15.5000  31.0000 Du        
   4511 ****        65.7500  15.5000  31.2500 Du        
   4512 ****        65.7500  15.5000  31.5000 Du        
   4513 ****        65.7500  15.7500  29.0000 Du        
   4514 ****        65.7500  15.7500  29.2500 Du        
   4515 ****        65.7500  15.7500  29.7500 Du        
   4516 ****        65.7500  15.7500  30.0000 Du        
   4517 ****        65.7500  15.7500  30.2500 Du        
   4518 ****        65.7500  15.7500  30.5000 Du        
   4519 ****        65.7500  15.7500  30.7500 Du        
   4520 ****        65.7500  15.7500  31.0000 Du        
   4521 ****        65.7500  16.0000  27.0000 Du        
   4522 ****        65.7500  16.0000  27.2500 Du        
   4523 ****        65.7500  16.0000  29.0000 Du        
   4524 ****        65.7500  16.0000  29.2500 Du        
   4525 ****        65.7500  16.0000  29.5000 Du        
   4526 ****        65.7500  16.0000  29.7500 Du        
   4527 ****        65.7500  16.0000  30.0000 Du        
   4528 ****        65.7500  16.0000  30.2500 Du        
   4529 ****        65.7500  16.0000  30.5000 Du        
   4530 ****        65.7500  16.0000  30.7500 Du        
   4531 ****        65.7500  16.2500  26.7500 Du        
   4532 ****        65.7500  16.2500  27.0000 Du        
   4533 ****        65.7500  16.2500  27.2500 Du        
   4534 ****        65.7500  16.2500  29.0000 Du        
   4535 ****        65.7500  16.2500  29.2500 Du        
   4536 ****        65.7500  16.2500  29.5000 Du        
   4537 ****        65.7500  16.2500  29.7500 Du        
   4538 ****        65.7500  16.2500  30.0000 Du        
   4539 ****        65.7500  16.2500  30.2500 Du        
   4540 ****        65.7500  16.2500  30.5000 Du        
   4541 ****        65.7500  16.2500  30.7500 Du        
   4542 ****        65.7500  16.5000  26.5000 Du        
   4543 ****        65.7500  16.5000  26.7500 Du        
   4544 ****        65.7500  16.5000  27.0000 Du        
   4545 ****        65.7500  16.5000  27.2500 Du        
   4546 ****        65.7500  16.5000  29.0000 Du        
   4547 ****        65.7500  16.5000  29.2500 Du        
   4548 ****        65.7500  16.5000  29.7500 Du        
   4549 ****        65.7500  16.5000  30.0000 Du        
   4550 ****        65.7500  16.5000  30.2500 Du        
   4551 ****        65.7500  16.7500  26.5000 Du        
   4552 ****        65.7500  16.7500  26.7500 Du        
   4553 ****        65.7500  16.7500  27.0000 Du        
   4554 ****        65.7500  16.7500  27.2500 Du        
   4555 ****        65.7500  16.7500  29.2500 Du        
   4556 ****        65.7500  16.7500  29.5000 Du        
   4557 ****        65.7500  16.7500  29.7500 Du        
   4558 ****        65.7500  16.7500  30.0000 Du        
   4559 ****        65.7500  16.7500  30.2500 Du        
   4560 ****        65.7500  17.0000  26.5000 Du        
   4561 ****        65.7500  17.0000  26.7500 Du        
   4562 ****        65.7500  17.0000  27.0000 Du        
   4563 ****        65.7500  17.0000  27.2500 Du        
   4564 ****        65.7500  17.0000  29.0000 Du        
   4565 ****        65.7500  17.0000  29.5000 Du        
   4566 ****        65.7500  17.0000  29.7500 Du        
   4567 ****        65.7500  17.0000  30.0000 Du        
   4568 ****        65.7500  17.0000  30.2500 Du        
   4569 ****        65.7500  17.2500  26.2500 Du        
   4570 ****        65.7500  17.2500  26.5000 Du        
   4571 ****        65.7500  17.2500  26.7500 Du        
   4572 ****        65.7500  17.2500  27.0000 Du        
   4573 ****        65.7500  17.2500  27.2500 Du        
   4574 ****        65.7500  17.2500  27.7500 Du        
   4575 ****        65.7500  17.2500  29.5000 Du        
   4576 ****        65.7500  17.2500  29.7500 Du        
   4577 ****        65.7500  17.2500  30.0000 Du        
   4578 ****        65.7500  17.5000  26.2500 Du        
   4579 ****        65.7500  17.5000  26.5000 Du        
   4580 ****        65.7500  17.5000  26.7500 Du        
   4581 ****        65.7500  17.5000  27.0000 Du        
   4582 ****        65.7500  17.5000  27.2500 Du        
   4583 ****        65.7500  17.5000  27.7500 Du        
   4584 ****        65.7500  17.5000  29.0000 Du        
   4585 ****        65.7500  17.5000  29.2500 Du        
   4586 ****        65.7500  17.5000  29.5000 Du        
   4587 ****        65.7500  17.5000  29.7500 Du        
   4588 ****        65.7500  17.5000  30.0000 Du        
   4589 ****        65.7500  17.7500  26.2500 Du        
   4590 ****        65.7500  17.7500  26.5000 Du        
   4591 ****        65.7500  17.7500  26.7500 Du        
   4592 ****        65.7500  17.7500  27.0000 Du        
   4593 ****        65.7500  17.7500  27.2500 Du        
   4594 ****        65.7500  17.7500  27.5000 Du        
   4595 ****        65.7500  17.7500  27.7500 Du        
   4596 ****        65.7500  17.7500  29.0000 Du        
   4597 ****        65.7500  17.7500  29.2500 Du        
   4598 ****        65.7500  17.7500  29.5000 Du        
   4599 ****        65.7500  17.7500  29.7500 Du        
   4600 ****        65.7500  17.7500  30.0000 Du        
   4601 ****        65.7500  18.0000  26.0000 Du        
   4602 ****        65.7500  18.0000  26.2500 Du        
   4603 ****        65.7500  18.0000  26.5000 Du        
   4604 ****        65.7500  18.0000  26.7500 Du        
   4605 ****        65.7500  18.0000  27.0000 Du        
   4606 ****        65.7500  18.0000  27.2500 Du        
   4607 ****        65.7500  18.0000  27.5000 Du        
   4608 ****        65.7500  18.0000  27.7500 Du        
   4609 ****        65.7500  18.0000  29.0000 Du        
   4610 ****        65.7500  18.0000  29.2500 Du        
   4611 ****        65.7500  18.0000  29.5000 Du        
   4612 ****        65.7500  18.0000  29.7500 Du        
   4613 ****        65.7500  18.0000  30.0000 Du        
   4614 ****        65.7500  18.2500  26.0000 Du        
   4615 ****        65.7500  18.2500  26.2500 Du        
   4616 ****        65.7500  18.2500  26.5000 Du        
   4617 ****        65.7500  18.2500  26.7500 Du        
   4618 ****        65.7500  18.2500  27.0000 Du        
   4619 ****        65.7500  18.2500  27.2500 Du        
   4620 ****        65.7500  18.2500  27.5000 Du        
   4621 ****        65.7500  18.2500  27.7500 Du        
   4622 ****        65.7500  18.2500  28.0000 Du        
   4623 ****        65.7500  18.2500  29.0000 Du        
   4624 ****        65.7500  18.2500  29.5000 Du        
   4625 ****        65.7500  18.2500  29.7500 Du        
   4626 ****        65.7500  18.2500  30.0000 Du        
   4627 ****        65.7500  18.5000  25.7500 Du        
   4628 ****        65.7500  18.5000  26.0000 Du        
   4629 ****        65.7500  18.5000  26.2500 Du        
   4630 ****        65.7500  18.5000  26.5000 Du        
   4631 ****        65.7500  18.5000  26.7500 Du        
   4632 ****        65.7500  18.5000  27.0000 Du        
   4633 ****        65.7500  18.5000  27.2500 Du        
   4634 ****        65.7500  18.5000  29.5000 Du        
   4635 ****        65.7500  18.5000  29.7500 Du        
   4636 ****        65.7500  18.7500  25.7500 Du        
   4637 ****        65.7500  18.7500  26.0000 Du        
   4638 ****        65.7500  18.7500  26.2500 Du        
   4639 ****        65.7500  18.7500  26.5000 Du        
   4640 ****        65.7500  18.7500  26.7500 Du        
   4641 ****        65.7500  18.7500  27.0000 Du        
   4642 ****        65.7500  18.7500  27.2500 Du        
   4643 ****        65.7500  19.0000  25.5000 Du        
   4644 ****        65.7500  19.0000  25.7500 Du        
   4645 ****        65.7500  19.0000  26.0000 Du        
   4646 ****        65.7500  19.0000  26.2500 Du        
   4647 ****        65.7500  19.0000  26.5000 Du        
   4648 ****        65.7500  19.0000  26.7500 Du        
   4649 ****        65.7500  19.0000  27.0000 Du        
   4650 ****        65.7500  19.0000  27.2500 Du        
   4651 ****        65.7500  19.0000  27.5000 Du        
   4652 ****        65.7500  19.2500  25.2500 Du        
   4653 ****        65.7500  19.2500  25.5000 Du        
   4654 ****        65.7500  19.2500  25.7500 Du        
   4655 ****        65.7500  19.2500  26.0000 Du        
   4656 ****        65.7500  19.2500  26.2500 Du        
   4657 ****        65.7500  19.2500  26.5000 Du        
   4658 ****        65.7500  19.2500  26.7500 Du        
   4659 ****        65.7500  19.2500  27.0000 Du        
   4660 ****        65.7500  19.2500  27.2500 Du        
   4661 ****        65.7500  19.5000  25.0000 Du        
   4662 ****        65.7500  19.5000  25.2500 Du        
   4663 ****        65.7500  19.5000  25.5000 Du        
   4664 ****        65.7500  19.5000  25.7500 Du        
   4665 ****        65.7500  19.5000  26.0000 Du        
   4666 ****        65.7500  19.5000  26.2500 Du        
   4667 ****        65.7500  19.5000  26.5000 Du        
   4668 ****        65.7500  19.5000  26.7500 Du        
   4669 ****        65.7500  19.5000  27.0000 Du        
   4670 ****        65.7500  19.5000  27.2500 Du        
   4671 ****        65.7500  19.7500  25.0000 Du        
   4672 ****        65.7500  19.7500  25.2500 Du        
   4673 ****        65.7500  19.7500  25.5000 Du        
   4674 ****        65.7500  19.7500  25.7500 Du        
   4675 ****        65.7500  19.7500  26.0000 Du        
   4676 ****        65.7500  19.7500  26.2500 Du        
   4677 ****        65.7500  19.7500  26.5000 Du        
   4678 ****        65.7500  19.7500  26.7500 Du        
   4679 ****        65.7500  19.7500  27.0000 Du        
   4680 ****        65.7500  19.7500  27.2500 Du        
   4681 ****        65.7500  20.0000  25.2500 Du        
   4682 ****        65.7500  20.0000  25.5000 Du        
   4683 ****        65.7500  20.0000  25.7500 Du        
   4684 ****        65.7500  20.0000  26.0000 Du        
   4685 ****        65.7500  20.0000  26.2500 Du        
   4686 ****        65.7500  20.0000  26.5000 Du        
   4687 ****        65.7500  20.0000  26.7500 Du        
   4688 ****        65.7500  20.0000  27.0000 Du        
   4689 ****        65.7500  20.2500  25.7500 Du        
   4690 ****        65.7500  20.2500  26.0000 Du        
   4691 ****        65.7500  20.2500  26.2500 Du        
   4692 ****        65.7500  20.2500  26.5000 Du        
   4693 ****        66.0000  14.0000  30.5000 Du        
   4694 ****        66.0000  14.0000  30.7500 Du        
   4695 ****        66.0000  14.0000  31.0000 Du        
   4696 ****        66.0000  14.0000  31.2500 Du        
   4697 ****        66.0000  14.0000  31.5000 Du        
   4698 ****        66.0000  14.0000  31.7500 Du        
   4699 ****        66.0000  14.0000  32.0000 Du        
   4700 ****        66.0000  14.2500  30.2500 Du        
   4701 ****        66.0000  14.2500  30.5000 Du        
   4702 ****        66.0000  14.2500  30.7500 Du        
   4703 ****        66.0000  14.2500  31.0000 Du        
   4704 ****        66.0000  14.2500  31.2500 Du        
   4705 ****        66.0000  14.2500  31.5000 Du        
   4706 ****        66.0000  14.2500  31.7500 Du        
   4707 ****        66.0000  14.2500  32.0000 Du        
   4708 ****        66.0000  14.2500  32.2500 Du        
   4709 ****        66.0000  14.5000  29.7500 Du        
   4710 ****        66.0000  14.5000  30.0000 Du        
   4711 ****        66.0000  14.5000  30.2500 Du        
   4712 ****        66.0000  14.5000  30.5000 Du        
   4713 ****        66.0000  14.5000  30.7500 Du        
   4714 ****        66.0000  14.5000  31.0000 Du        
   4715 ****        66.0000  14.5000  31.2500 Du        
   4716 ****        66.0000  14.5000  31.5000 Du        
   4717 ****        66.0000  14.5000  31.7500 Du        
   4718 ****        66.0000  14.5000  32.0000 Du        
   4719 ****        66.0000  14.5000  32.2500 Du        
   4720 ****        66.0000  14.7500  29.7500 Du        
   4721 ****        66.0000  14.7500  30.0000 Du        
   4722 ****        66.0000  14.7500  30.2500 Du        
   4723 ****        66.0000  14.7500  30.5000 Du        
   4724 ****        66.0000  14.7500  30.7500 Du        
   4725 ****        66.0000  14.7500  31.0000 Du        
   4726 ****        66.0000  14.7500  31.2500 Du        
   4727 ****        66.0000  14.7500  31.5000 Du        
   4728 ****        66.0000  14.7500  31.7500 Du        
   4729 ****        66.0000  14.7500  32.0000 Du        
   4730 ****        66.0000  15.0000  29.5000 Du        
   4731 ****        66.0000  15.0000  29.7500 Du        
   4732 ****        66.0000  15.0000  30.0000 Du        
   4733 ****        66.0000  15.0000  30.2500 Du        
   4734 ****        66.0000  15.0000  30.5000 Du        
   4735 ****        66.0000  15.0000  30.7500 Du        
   4736 ****        66.0000  15.0000  31.0000 Du        
   4737 ****        66.0000  15.0000  31.2500 Du        
   4738 ****        66.0000  15.0000  31.5000 Du        
   4739 ****        66.0000  15.0000  31.7500 Du        
   4740 ****        66.0000  15.0000  32.0000 Du        
   4741 ****        66.0000  15.2500  29.5000 Du        
   4742 ****        66.0000  15.2500  29.7500 Du        
   4743 ****        66.0000  15.2500  30.0000 Du        
   4744 ****        66.0000  15.2500  30.2500 Du        
   4745 ****        66.0000  15.2500  30.5000 Du        
   4746 ****        66.0000  15.2500  30.7500 Du        
   4747 ****        66.0000  15.2500  31.0000 Du        
   4748 ****        66.0000  15.2500  31.2500 Du        
   4749 ****        66.0000  15.2500  31.5000 Du        
   4750 ****        66.0000  15.2500  31.7500 Du        
   4751 ****        66.0000  15.5000  29.2500 Du        
   4752 ****        66.0000  15.5000  29.5000 Du        
   4753 ****        66.0000  15.5000  29.7500 Du        
   4754 ****        66.0000  15.5000  30.0000 Du        
   4755 ****        66.0000  15.5000  30.2500 Du        
   4756 ****        66.0000  15.5000  30.5000 Du        
   4757 ****        66.0000  15.5000  30.7500 Du        
   4758 ****        66.0000  15.5000  31.0000 Du        
   4759 ****        66.0000  15.5000  31.2500 Du        
   4760 ****        66.0000  15.7500  29.0000 Du        
   4761 ****        66.0000  15.7500  29.2500 Du        
   4762 ****        66.0000  15.7500  29.5000 Du        
   4763 ****        66.0000  15.7500  29.7500 Du        
   4764 ****        66.0000  15.7500  30.0000 Du        
   4765 ****        66.0000  15.7500  30.2500 Du        
   4766 ****        66.0000  15.7500  30.5000 Du        
   4767 ****        66.0000  15.7500  30.7500 Du        
   4768 ****        66.0000  15.7500  31.0000 Du        
   4769 ****        66.0000  16.0000  27.0000 Du        
   4770 ****        66.0000  16.0000  27.2500 Du        
   4771 ****        66.0000  16.0000  29.0000 Du        
   4772 ****        66.0000  16.0000  29.2500 Du        
   4773 ****        66.0000  16.0000  29.5000 Du        
   4774 ****        66.0000  16.0000  29.7500 Du        
   4775 ****        66.0000  16.0000  30.0000 Du        
   4776 ****        66.0000  16.0000  30.2500 Du        
   4777 ****        66.0000  16.0000  30.5000 Du        
   4778 ****        66.0000  16.0000  30.7500 Du        
   4779 ****        66.0000  16.2500  26.7500 Du        
   4780 ****        66.0000  16.2500  27.0000 Du        
   4781 ****        66.0000  16.2500  27.2500 Du        
   4782 ****        66.0000  16.2500  29.0000 Du        
   4783 ****        66.0000  16.2500  29.2500 Du        
   4784 ****        66.0000  16.2500  29.5000 Du        
   4785 ****        66.0000  16.2500  29.7500 Du        
   4786 ****        66.0000  16.2500  30.0000 Du        
   4787 ****        66.0000  16.2500  30.2500 Du        
   4788 ****        66.0000  16.2500  30.5000 Du        
   4789 ****        66.0000  16.5000  26.5000 Du        
   4790 ****        66.0000  16.5000  26.7500 Du        
   4791 ****        66.0000  16.5000  27.0000 Du        
   4792 ****        66.0000  16.5000  27.2500 Du        
   4793 ****        66.0000  16.5000  29.0000 Du        
   4794 ****        66.0000  16.5000  29.7500 Du        
   4795 ****        66.0000  16.5000  30.0000 Du        
   4796 ****        66.0000  16.5000  30.2500 Du        
   4797 ****        66.0000  16.7500  26.5000 Du        
   4798 ****        66.0000  16.7500  26.7500 Du        
   4799 ****        66.0000  16.7500  27.0000 Du        
   4800 ****        66.0000  16.7500  27.2500 Du        
   4801 ****        66.0000  16.7500  27.5000 Du        
   4802 ****        66.0000  16.7500  29.7500 Du        
   4803 ****        66.0000  16.7500  30.0000 Du        
   4804 ****        66.0000  16.7500  30.2500 Du        
   4805 ****        66.0000  17.0000  26.5000 Du        
   4806 ****        66.0000  17.0000  26.7500 Du        
   4807 ****        66.0000  17.0000  27.0000 Du        
   4808 ****        66.0000  17.0000  27.2500 Du        
   4809 ****        66.0000  17.0000  27.5000 Du        
   4810 ****        66.0000  17.0000  27.7500 Du        
   4811 ****        66.0000  17.0000  29.0000 Du        
   4812 ****        66.0000  17.0000  29.2500 Du        
   4813 ****        66.0000  17.0000  29.5000 Du        
   4814 ****        66.0000  17.0000  29.7500 Du        
   4815 ****        66.0000  17.0000  30.0000 Du        
   4816 ****        66.0000  17.0000  30.2500 Du        
   4817 ****        66.0000  17.2500  26.2500 Du        
   4818 ****        66.0000  17.2500  26.5000 Du        
   4819 ****        66.0000  17.2500  26.7500 Du        
   4820 ****        66.0000  17.2500  27.0000 Du        
   4821 ****        66.0000  17.2500  27.2500 Du        
   4822 ****        66.0000  17.2500  29.0000 Du        
   4823 ****        66.0000  17.2500  29.5000 Du        
   4824 ****        66.0000  17.2500  29.7500 Du        
   4825 ****        66.0000  17.2500  30.0000 Du        
   4826 ****        66.0000  17.5000  26.2500 Du        
   4827 ****        66.0000  17.5000  26.5000 Du        
   4828 ****        66.0000  17.5000  26.7500 Du        
   4829 ****        66.0000  17.5000  27.0000 Du        
   4830 ****        66.0000  17.5000  27.2500 Du        
   4831 ****        66.0000  17.5000  29.2500 Du        
   4832 ****        66.0000  17.5000  29.5000 Du        
   4833 ****        66.0000  17.5000  29.7500 Du        
   4834 ****        66.0000  17.5000  30.0000 Du        
   4835 ****        66.0000  17.7500  26.2500 Du        
   4836 ****        66.0000  17.7500  26.5000 Du        
   4837 ****        66.0000  17.7500  26.7500 Du        
   4838 ****        66.0000  17.7500  27.0000 Du        
   4839 ****        66.0000  17.7500  27.2500 Du        
   4840 ****        66.0000  17.7500  27.7500 Du        
   4841 ****        66.0000  17.7500  29.2500 Du        
   4842 ****        66.0000  17.7500  29.5000 Du        
   4843 ****        66.0000  17.7500  29.7500 Du        
   4844 ****        66.0000  17.7500  30.0000 Du        
   4845 ****        66.0000  18.0000  26.0000 Du        
   4846 ****        66.0000  18.0000  26.2500 Du        
   4847 ****        66.0000  18.0000  26.5000 Du        
   4848 ****        66.0000  18.0000  26.7500 Du        
   4849 ****        66.0000  18.0000  27.0000 Du        
   4850 ****        66.0000  18.0000  27.2500 Du        
   4851 ****        66.0000  18.0000  27.5000 Du        
   4852 ****        66.0000  18.0000  27.7500 Du        
   4853 ****        66.0000  18.0000  28.0000 Du        
   4854 ****        66.0000  18.0000  28.2500 Du        
   4855 ****        66.0000  18.0000  29.0000 Du        
   4856 ****        66.0000  18.0000  29.2500 Du        
   4857 ****        66.0000  18.0000  29.5000 Du        
   4858 ****        66.0000  18.0000  29.7500 Du        
   4859 ****        66.0000  18.0000  30.0000 Du        
   4860 ****        66.0000  18.2500  26.0000 Du        
   4861 ****        66.0000  18.2500  26.2500 Du        
   4862 ****        66.0000  18.2500  26.5000 Du        
   4863 ****        66.0000  18.2500  26.7500 Du        
   4864 ****        66.0000  18.2500  27.0000 Du        
   4865 ****        66.0000  18.2500  27.2500 Du        
   4866 ****        66.0000  18.2500  27.5000 Du        
   4867 ****        66.0000  18.2500  27.7500 Du        
   4868 ****        66.0000  18.2500  28.0000 Du        
   4869 ****        66.0000  18.2500  29.0000 Du        
   4870 ****        66.0000  18.2500  29.2500 Du        
   4871 ****        66.0000  18.2500  29.5000 Du        
   4872 ****        66.0000  18.2500  29.7500 Du        
   4873 ****        66.0000  18.2500  30.0000 Du        
   4874 ****        66.0000  18.5000  25.7500 Du        
   4875 ****        66.0000  18.5000  26.0000 Du        
   4876 ****        66.0000  18.5000  26.2500 Du        
   4877 ****        66.0000  18.5000  26.5000 Du        
   4878 ****        66.0000  18.5000  26.7500 Du        
   4879 ****        66.0000  18.5000  27.0000 Du        
   4880 ****        66.0000  18.5000  27.2500 Du        
   4881 ****        66.0000  18.5000  27.7500 Du        
   4882 ****        66.0000  18.5000  28.0000 Du        
   4883 ****        66.0000  18.5000  29.0000 Du        
   4884 ****        66.0000  18.5000  29.2500 Du        
   4885 ****        66.0000  18.5000  29.5000 Du        
   4886 ****        66.0000  18.5000  29.7500 Du        
   4887 ****        66.0000  18.7500  25.5000 Du        
   4888 ****        66.0000  18.7500  25.7500 Du        
   4889 ****        66.0000  18.7500  26.0000 Du        
   4890 ****        66.0000  18.7500  26.2500 Du        
   4891 ****        66.0000  18.7500  26.5000 Du        
   4892 ****        66.0000  18.7500  26.7500 Du        
   4893 ****        66.0000  18.7500  27.0000 Du        
   4894 ****        66.0000  18.7500  27.2500 Du        
   4895 ****        66.0000  18.7500  27.5000 Du        
   4896 ****        66.0000  18.7500  27.7500 Du        
   4897 ****        66.0000  18.7500  28.0000 Du        
   4898 ****        66.0000  18.7500  28.2500 Du        
   4899 ****        66.0000  18.7500  28.7500 Du        
   4900 ****        66.0000  18.7500  29.0000 Du        
   4901 ****        66.0000  18.7500  29.2500 Du        
   4902 ****        66.0000  18.7500  29.5000 Du        
   4903 ****        66.0000  19.0000  25.5000 Du        
   4904 ****        66.0000  19.0000  25.7500 Du        
   4905 ****        66.0000  19.0000  26.0000 Du        
   4906 ****        66.0000  19.0000  26.2500 Du        
   4907 ****        66.0000  19.0000  26.5000 Du        
   4908 ****        66.0000  19.0000  26.7500 Du        
   4909 ****        66.0000  19.0000  27.0000 Du        
   4910 ****        66.0000  19.0000  27.2500 Du        
   4911 ****        66.0000  19.0000  27.5000 Du        
   4912 ****        66.0000  19.0000  27.7500 Du        
   4913 ****        66.0000  19.0000  28.0000 Du        
   4914 ****        66.0000  19.0000  28.2500 Du        
   4915 ****        66.0000  19.0000  29.0000 Du        
   4916 ****        66.0000  19.0000  29.2500 Du        
   4917 ****        66.0000  19.2500  25.2500 Du        
   4918 ****        66.0000  19.2500  25.5000 Du        
   4919 ****        66.0000  19.2500  25.7500 Du        
   4920 ****        66.0000  19.2500  26.0000 Du        
   4921 ****        66.0000  19.2500  26.2500 Du        
   4922 ****        66.0000  19.2500  26.5000 Du        
   4923 ****        66.0000  19.2500  26.7500 Du        
   4924 ****        66.0000  19.2500  27.0000 Du        
   4925 ****        66.0000  19.2500  27.2500 Du        
   4926 ****        66.0000  19.2500  27.5000 Du        
   4927 ****        66.0000  19.2500  27.7500 Du        
   4928 ****        66.0000  19.2500  28.0000 Du        
   4929 ****        66.0000  19.5000  25.0000 Du        
   4930 ****        66.0000  19.5000  25.2500 Du        
   4931 ****        66.0000  19.5000  25.5000 Du        
   4932 ****        66.0000  19.5000  25.7500 Du        
   4933 ****        66.0000  19.5000  26.0000 Du        
   4934 ****        66.0000  19.5000  26.2500 Du        
   4935 ****        66.0000  19.5000  26.5000 Du        
   4936 ****        66.0000  19.5000  26.7500 Du        
   4937 ****        66.0000  19.5000  27.0000 Du        
   4938 ****        66.0000  19.5000  27.2500 Du        
   4939 ****        66.0000  19.5000  27.5000 Du        
   4940 ****        66.0000  19.5000  27.7500 Du        
   4941 ****        66.0000  19.7500  25.0000 Du        
   4942 ****        66.0000  19.7500  25.2500 Du        
   4943 ****        66.0000  19.7500  25.5000 Du        
   4944 ****        66.0000  19.7500  25.7500 Du        
   4945 ****        66.0000  19.7500  26.0000 Du        
   4946 ****        66.0000  19.7500  26.2500 Du        
   4947 ****        66.0000  19.7500  26.5000 Du        
   4948 ****        66.0000  19.7500  26.7500 Du        
   4949 ****        66.0000  19.7500  27.0000 Du        
   4950 ****        66.0000  19.7500  27.2500 Du        
   4951 ****        66.0000  20.0000  25.2500 Du        
   4952 ****        66.0000  20.0000  25.5000 Du        
   4953 ****        66.0000  20.0000  25.7500 Du        
   4954 ****        66.0000  20.0000  26.0000 Du        
   4955 ****        66.0000  20.0000  26.2500 Du        
   4956 ****        66.0000  20.0000  26.5000 Du        
   4957 ****        66.0000  20.0000  26.7500 Du        
   4958 ****        66.0000  20.0000  27.0000 Du        
   4959 ****        66.0000  20.0000  27.2500 Du        
   4960 ****        66.2500  14.0000  30.5000 Du        
   4961 ****        66.2500  14.0000  30.7500 Du        
   4962 ****        66.2500  14.0000  31.0000 Du        
   4963 ****        66.2500  14.0000  31.2500 Du        
   4964 ****        66.2500  14.0000  31.5000 Du        
   4965 ****        66.2500  14.2500  30.2500 Du        
   4966 ****        66.2500  14.2500  30.5000 Du        
   4967 ****        66.2500  14.2500  30.7500 Du        
   4968 ****        66.2500  14.2500  31.0000 Du        
   4969 ****        66.2500  14.2500  31.2500 Du        
   4970 ****        66.2500  14.2500  31.5000 Du        
   4971 ****        66.2500  14.2500  31.7500 Du        
   4972 ****        66.2500  14.2500  32.0000 Du        
   4973 ****        66.2500  14.5000  30.0000 Du        
   4974 ****        66.2500  14.5000  30.2500 Du        
   4975 ****        66.2500  14.5000  30.5000 Du        
   4976 ****        66.2500  14.5000  30.7500 Du        
   4977 ****        66.2500  14.5000  31.0000 Du        
   4978 ****        66.2500  14.5000  31.2500 Du        
   4979 ****        66.2500  14.5000  31.5000 Du        
   4980 ****        66.2500  14.5000  31.7500 Du        
   4981 ****        66.2500  14.5000  32.0000 Du        
   4982 ****        66.2500  14.7500  29.7500 Du        
   4983 ****        66.2500  14.7500  30.0000 Du        
   4984 ****        66.2500  14.7500  30.2500 Du        
   4985 ****        66.2500  14.7500  30.5000 Du        
   4986 ****        66.2500  14.7500  30.7500 Du        
   4987 ****        66.2500  14.7500  31.0000 Du        
   4988 ****        66.2500  14.7500  31.2500 Du        
   4989 ****        66.2500  14.7500  31.5000 Du        
   4990 ****        66.2500  14.7500  31.7500 Du        
   4991 ****        66.2500  14.7500  32.0000 Du        
   4992 ****        66.2500  15.0000  29.5000 Du        
   4993 ****        66.2500  15.0000  29.7500 Du        
   4994 ****        66.2500  15.0000  30.0000 Du        
   4995 ****        66.2500  15.0000  30.2500 Du        
   4996 ****        66.2500  15.0000  30.5000 Du        
   4997 ****        66.2500  15.0000  30.7500 Du        
   4998 ****        66.2500  15.0000  31.0000 Du        
   4999 ****        66.2500  15.0000  31.2500 Du        
   5000 ****        66.2500  15.0000  31.5000 Du        
   5001 ****        66.2500  15.0000  31.7500 Du        
   5002 ****        66.2500  15.2500  29.5000 Du        
   5003 ****        66.2500  15.2500  29.7500 Du        
   5004 ****        66.2500  15.2500  30.0000 Du        
   5005 ****        66.2500  15.2500  30.2500 Du        
   5006 ****        66.2500  15.2500  30.5000 Du        
   5007 ****        66.2500  15.2500  30.7500 Du        
   5008 ****        66.2500  15.2500  31.0000 Du        
   5009 ****        66.2500  15.2500  31.2500 Du        
   5010 ****        66.2500  15.2500  31.5000 Du        
   5011 ****        66.2500  15.5000  29.2500 Du        
   5012 ****        66.2500  15.5000  29.5000 Du        
   5013 ****        66.2500  15.5000  29.7500 Du        
   5014 ****        66.2500  15.5000  30.0000 Du        
   5015 ****        66.2500  15.5000  30.2500 Du        
   5016 ****        66.2500  15.5000  30.5000 Du        
   5017 ****        66.2500  15.5000  30.7500 Du        
   5018 ****        66.2500  15.5000  31.0000 Du        
   5019 ****        66.2500  15.5000  31.2500 Du        
   5020 ****        66.2500  15.7500  29.0000 Du        
   5021 ****        66.2500  15.7500  29.2500 Du        
   5022 ****        66.2500  15.7500  29.5000 Du        
   5023 ****        66.2500  15.7500  29.7500 Du        
   5024 ****        66.2500  15.7500  30.0000 Du        
   5025 ****        66.2500  15.7500  30.2500 Du        
   5026 ****        66.2500  15.7500  30.5000 Du        
   5027 ****        66.2500  15.7500  30.7500 Du        
   5028 ****        66.2500  15.7500  31.0000 Du        
   5029 ****        66.2500  16.0000  27.0000 Du        
   5030 ****        66.2500  16.0000  27.2500 Du        
   5031 ****        66.2500  16.0000  28.7500 Du        
   5032 ****        66.2500  16.0000  29.0000 Du        
   5033 ****        66.2500  16.0000  29.2500 Du        
   5034 ****        66.2500  16.0000  29.5000 Du        
   5035 ****        66.2500  16.0000  29.7500 Du        
   5036 ****        66.2500  16.0000  30.0000 Du        
   5037 ****        66.2500  16.0000  30.2500 Du        
   5038 ****        66.2500  16.0000  30.5000 Du        
   5039 ****        66.2500  16.0000  30.7500 Du        
   5040 ****        66.2500  16.2500  26.7500 Du        
   5041 ****        66.2500  16.2500  27.0000 Du        
   5042 ****        66.2500  16.2500  27.2500 Du        
   5043 ****        66.2500  16.2500  29.0000 Du        
   5044 ****        66.2500  16.2500  29.2500 Du        
   5045 ****        66.2500  16.2500  29.5000 Du        
   5046 ****        66.2500  16.2500  29.7500 Du        
   5047 ****        66.2500  16.2500  30.0000 Du        
   5048 ****        66.2500  16.2500  30.2500 Du        
   5049 ****        66.2500  16.2500  30.5000 Du        
   5050 ****        66.2500  16.5000  26.7500 Du        
   5051 ****        66.2500  16.5000  27.0000 Du        
   5052 ****        66.2500  16.5000  27.2500 Du        
   5053 ****        66.2500  16.5000  29.7500 Du        
   5054 ****        66.2500  16.5000  30.0000 Du        
   5055 ****        66.2500  16.5000  30.2500 Du        
   5056 ****        66.2500  16.7500  26.5000 Du        
   5057 ****        66.2500  16.7500  26.7500 Du        
   5058 ****        66.2500  16.7500  27.0000 Du        
   5059 ****        66.2500  16.7500  27.2500 Du        
   5060 ****        66.2500  16.7500  29.0000 Du        
   5061 ****        66.2500  16.7500  29.2500 Du        
   5062 ****        66.2500  16.7500  29.7500 Du        
   5063 ****        66.2500  16.7500  30.0000 Du        
   5064 ****        66.2500  17.0000  26.5000 Du        
   5065 ****        66.2500  17.0000  26.7500 Du        
   5066 ****        66.2500  17.0000  27.0000 Du        
   5067 ****        66.2500  17.0000  27.2500 Du        
   5068 ****        66.2500  17.0000  29.2500 Du        
   5069 ****        66.2500  17.0000  29.5000 Du        
   5070 ****        66.2500  17.0000  29.7500 Du        
   5071 ****        66.2500  17.0000  30.0000 Du        
   5072 ****        66.2500  17.2500  26.2500 Du        
   5073 ****        66.2500  17.2500  26.5000 Du        
   5074 ****        66.2500  17.2500  26.7500 Du        
   5075 ****        66.2500  17.2500  27.0000 Du        
   5076 ****        66.2500  17.2500  27.2500 Du        
   5077 ****        66.2500  17.2500  29.0000 Du        
   5078 ****        66.2500  17.2500  29.5000 Du        
   5079 ****        66.2500  17.2500  29.7500 Du        
   5080 ****        66.2500  17.2500  30.0000 Du        
   5081 ****        66.2500  17.5000  26.2500 Du        
   5082 ****        66.2500  17.5000  26.5000 Du        
   5083 ****        66.2500  17.5000  26.7500 Du        
   5084 ****        66.2500  17.5000  27.0000 Du        
   5085 ****        66.2500  17.5000  27.2500 Du        
   5086 ****        66.2500  17.5000  29.7500 Du        
   5087 ****        66.2500  17.5000  30.0000 Du        
   5088 ****        66.2500  17.7500  26.2500 Du        
   5089 ****        66.2500  17.7500  26.5000 Du        
   5090 ****        66.2500  17.7500  26.7500 Du        
   5091 ****        66.2500  17.7500  27.0000 Du        
   5092 ****        66.2500  17.7500  27.2500 Du        
   5093 ****        66.2500  17.7500  27.7500 Du        
   5094 ****        66.2500  17.7500  28.0000 Du        
   5095 ****        66.2500  17.7500  29.5000 Du        
   5096 ****        66.2500  17.7500  29.7500 Du        
   5097 ****        66.2500  17.7500  30.0000 Du        
   5098 ****        66.2500  18.0000  26.0000 Du        
   5099 ****        66.2500  18.0000  26.2500 Du        
   5100 ****        66.2500  18.0000  26.5000 Du        
   5101 ****        66.2500  18.0000  26.7500 Du        
   5102 ****        66.2500  18.0000  27.0000 Du        
   5103 ****        66.2500  18.0000  27.2500 Du        
   5104 ****        66.2500  18.0000  27.5000 Du        
   5105 ****        66.2500  18.0000  27.7500 Du        
   5106 ****        66.2500  18.0000  28.0000 Du        
   5107 ****        66.2500  18.0000  28.2500 Du        
   5108 ****        66.2500  18.0000  29.0000 Du        
   5109 ****        66.2500  18.0000  29.5000 Du        
   5110 ****        66.2500  18.0000  29.7500 Du        
   5111 ****        66.2500  18.0000  30.0000 Du        
   5112 ****        66.2500  18.2500  26.0000 Du        
   5113 ****        66.2500  18.2500  26.2500 Du        
   5114 ****        66.2500  18.2500  26.5000 Du        
   5115 ****        66.2500  18.2500  26.7500 Du        
   5116 ****        66.2500  18.2500  27.0000 Du        
   5117 ****        66.2500  18.2500  27.2500 Du        
   5118 ****        66.2500  18.2500  27.5000 Du        
   5119 ****        66.2500  18.2500  27.7500 Du        
   5120 ****        66.2500  18.2500  28.0000 Du        
   5121 ****        66.2500  18.2500  28.2500 Du        
   5122 ****        66.2500  18.2500  29.5000 Du        
   5123 ****        66.2500  18.2500  29.7500 Du        
   5124 ****        66.2500  18.2500  30.0000 Du        
   5125 ****        66.2500  18.5000  25.7500 Du        
   5126 ****        66.2500  18.5000  26.0000 Du        
   5127 ****        66.2500  18.5000  26.2500 Du        
   5128 ****        66.2500  18.5000  26.5000 Du        
   5129 ****        66.2500  18.5000  26.7500 Du        
   5130 ****        66.2500  18.5000  27.0000 Du        
   5131 ****        66.2500  18.5000  27.2500 Du        
   5132 ****        66.2500  18.5000  27.7500 Du        
   5133 ****        66.2500  18.5000  28.0000 Du        
   5134 ****        66.2500  18.5000  28.2500 Du        
   5135 ****        66.2500  18.5000  29.0000 Du        
   5136 ****        66.2500  18.5000  29.2500 Du        
   5137 ****        66.2500  18.5000  29.5000 Du        
   5138 ****        66.2500  18.5000  29.7500 Du        
   5139 ****        66.2500  18.7500  25.5000 Du        
   5140 ****        66.2500  18.7500  25.7500 Du        
   5141 ****        66.2500  18.7500  26.0000 Du        
   5142 ****        66.2500  18.7500  26.2500 Du        
   5143 ****        66.2500  18.7500  26.5000 Du        
   5144 ****        66.2500  18.7500  26.7500 Du        
   5145 ****        66.2500  18.7500  27.0000 Du        
   5146 ****        66.2500  18.7500  27.2500 Du        
   5147 ****        66.2500  18.7500  27.5000 Du        
   5148 ****        66.2500  18.7500  27.7500 Du        
   5149 ****        66.2500  18.7500  28.0000 Du        
   5150 ****        66.2500  18.7500  28.2500 Du        
   5151 ****        66.2500  18.7500  28.5000 Du        
   5152 ****        66.2500  18.7500  28.7500 Du        
   5153 ****        66.2500  18.7500  29.0000 Du        
   5154 ****        66.2500  18.7500  29.2500 Du        
   5155 ****        66.2500  18.7500  29.5000 Du        
   5156 ****        66.2500  18.7500  29.7500 Du        
   5157 ****        66.2500  19.0000  25.2500 Du        
   5158 ****        66.2500  19.0000  25.5000 Du        
   5159 ****        66.2500  19.0000  25.7500 Du        
   5160 ****        66.2500  19.0000  26.0000 Du        
   5161 ****        66.2500  19.0000  26.2500 Du        
   5162 ****        66.2500  19.0000  26.5000 Du        
   5163 ****        66.2500  19.0000  26.7500 Du        
   5164 ****        66.2500  19.0000  27.0000 Du        
   5165 ****        66.2500  19.0000  27.2500 Du        
   5166 ****        66.2500  19.0000  27.5000 Du        
   5167 ****        66.2500  19.0000  27.7500 Du        
   5168 ****        66.2500  19.0000  28.0000 Du        
   5169 ****        66.2500  19.0000  28.2500 Du        
   5170 ****        66.2500  19.0000  28.5000 Du        
   5171 ****        66.2500  19.0000  28.7500 Du        
   5172 ****        66.2500  19.0000  29.0000 Du        
   5173 ****        66.2500  19.0000  29.2500 Du        
   5174 ****        66.2500  19.2500  25.2500 Du        
   5175 ****        66.2500  19.2500  25.5000 Du        
   5176 ****        66.2500  19.2500  25.7500 Du        
   5177 ****        66.2500  19.2500  26.0000 Du        
   5178 ****        66.2500  19.2500  26.2500 Du        
   5179 ****        66.2500  19.2500  26.5000 Du        
   5180 ****        66.2500  19.2500  26.7500 Du        
   5181 ****        66.2500  19.2500  27.0000 Du        
   5182 ****        66.2500  19.2500  27.2500 Du        
   5183 ****        66.2500  19.2500  27.5000 Du        
   5184 ****        66.2500  19.2500  27.7500 Du        
   5185 ****        66.2500  19.2500  28.0000 Du        
   5186 ****        66.2500  19.2500  28.2500 Du        
   5187 ****        66.2500  19.2500  28.5000 Du        
   5188 ****        66.2500  19.2500  28.7500 Du        
   5189 ****        66.2500  19.2500  29.0000 Du        
   5190 ****        66.2500  19.2500  29.2500 Du        
   5191 ****        66.2500  19.5000  25.0000 Du        
   5192 ****        66.2500  19.5000  25.2500 Du        
   5193 ****        66.2500  19.5000  25.5000 Du        
   5194 ****        66.2500  19.5000  25.7500 Du        
   5195 ****        66.2500  19.5000  26.0000 Du        
   5196 ****        66.2500  19.5000  26.2500 Du        
   5197 ****        66.2500  19.5000  26.5000 Du        
   5198 ****        66.2500  19.5000  26.7500 Du        
   5199 ****        66.2500  19.5000  27.0000 Du        
   5200 ****        66.2500  19.5000  27.2500 Du        
   5201 ****        66.2500  19.5000  27.5000 Du        
   5202 ****        66.2500  19.5000  27.7500 Du        
   5203 ****        66.2500  19.5000  28.0000 Du        
   5204 ****        66.2500  19.5000  28.2500 Du        
   5205 ****        66.2500  19.5000  28.5000 Du        
   5206 ****        66.2500  19.5000  28.7500 Du        
   5207 ****        66.2500  19.5000  29.0000 Du        
   5208 ****        66.2500  19.7500  25.0000 Du        
   5209 ****        66.2500  19.7500  25.2500 Du        
   5210 ****        66.2500  19.7500  25.5000 Du        
   5211 ****        66.2500  19.7500  25.7500 Du        
   5212 ****        66.2500  19.7500  26.0000 Du        
   5213 ****        66.2500  19.7500  26.2500 Du        
   5214 ****        66.2500  19.7500  26.5000 Du        
   5215 ****        66.2500  19.7500  26.7500 Du        
   5216 ****        66.2500  19.7500  27.0000 Du        
   5217 ****        66.2500  19.7500  27.2500 Du        
   5218 ****        66.2500  19.7500  27.7500 Du        
   5219 ****        66.2500  19.7500  28.0000 Du        
   5220 ****        66.2500  19.7500  28.2500 Du        
   5221 ****        66.5000  14.2500  30.2500 Du        
   5222 ****        66.5000  14.2500  30.5000 Du        
   5223 ****        66.5000  14.2500  30.7500 Du        
   5224 ****        66.5000  14.2500  31.0000 Du        
   5225 ****        66.5000  14.5000  30.0000 Du        
   5226 ****        66.5000  14.5000  30.2500 Du        
   5227 ****        66.5000  14.5000  30.5000 Du        
   5228 ****        66.5000  14.5000  30.7500 Du        
   5229 ****        66.5000  14.5000  31.0000 Du        
   5230 ****        66.5000  14.5000  31.2500 Du        
   5231 ****        66.5000  14.7500  29.7500 Du        
   5232 ****        66.5000  14.7500  30.0000 Du        
   5233 ****        66.5000  14.7500  30.2500 Du        
   5234 ****        66.5000  14.7500  30.5000 Du        
   5235 ****        66.5000  14.7500  30.7500 Du        
   5236 ****        66.5000  14.7500  31.0000 Du        
   5237 ****        66.5000  14.7500  31.2500 Du        
   5238 ****        66.5000  14.7500  31.5000 Du        
   5239 ****        66.5000  15.0000  29.5000 Du        
   5240 ****        66.5000  15.0000  29.7500 Du        
   5241 ****        66.5000  15.0000  30.0000 Du        
   5242 ****        66.5000  15.0000  30.2500 Du        
   5243 ****        66.5000  15.0000  30.5000 Du        
   5244 ****        66.5000  15.0000  30.7500 Du        
   5245 ****        66.5000  15.0000  31.0000 Du        
   5246 ****        66.5000  15.0000  31.2500 Du        
   5247 ****        66.5000  15.0000  31.5000 Du        
   5248 ****        66.5000  15.2500  29.2500 Du        
   5249 ****        66.5000  15.2500  29.5000 Du        
   5250 ****        66.5000  15.2500  29.7500 Du        
   5251 ****        66.5000  15.2500  30.0000 Du        
   5252 ****        66.5000  15.2500  30.2500 Du        
   5253 ****        66.5000  15.2500  30.5000 Du        
   5254 ****        66.5000  15.2500  30.7500 Du        
   5255 ****        66.5000  15.2500  31.0000 Du        
   5256 ****        66.5000  15.2500  31.2500 Du        
   5257 ****        66.5000  15.5000  29.5000 Du        
   5258 ****        66.5000  15.5000  29.7500 Du        
   5259 ****        66.5000  15.5000  30.0000 Du        
   5260 ****        66.5000  15.5000  30.2500 Du        
   5261 ****        66.5000  15.5000  30.5000 Du        
   5262 ****        66.5000  15.5000  30.7500 Du        
   5263 ****        66.5000  15.5000  31.0000 Du        
   5264 ****        66.5000  15.7500  29.5000 Du        
   5265 ****        66.5000  15.7500  29.7500 Du        
   5266 ****        66.5000  15.7500  30.0000 Du        
   5267 ****        66.5000  15.7500  30.2500 Du        
   5268 ****        66.5000  15.7500  30.5000 Du        
   5269 ****        66.5000  15.7500  30.7500 Du        
   5270 ****        66.5000  16.0000  29.5000 Du        
   5271 ****        66.5000  16.0000  29.7500 Du        
   5272 ****        66.5000  16.0000  30.0000 Du        
   5273 ****        66.5000  16.0000  30.2500 Du        
   5274 ****        66.5000  16.0000  30.5000 Du        
   5275 ****        66.5000  16.2500  26.7500 Du        
   5276 ****        66.5000  16.2500  27.0000 Du        
   5277 ****        66.5000  16.2500  27.2500 Du        
   5278 ****        66.5000  16.2500  27.5000 Du        
   5279 ****        66.5000  16.2500  27.7500 Du        
   5280 ****        66.5000  16.2500  29.5000 Du        
   5281 ****        66.5000  16.2500  29.7500 Du        
   5282 ****        66.5000  16.2500  30.0000 Du        
   5283 ****        66.5000  16.2500  30.2500 Du        
   5284 ****        66.5000  16.2500  30.5000 Du        
   5285 ****        66.5000  16.5000  26.7500 Du        
   5286 ****        66.5000  16.5000  27.0000 Du        
   5287 ****        66.5000  16.5000  27.2500 Du        
   5288 ****        66.5000  16.5000  27.5000 Du        
   5289 ****        66.5000  16.5000  27.7500 Du        
   5290 ****        66.5000  16.5000  29.7500 Du        
   5291 ****        66.5000  16.5000  30.0000 Du        
   5292 ****        66.5000  16.5000  30.2500 Du        
   5293 ****        66.5000  16.7500  26.5000 Du        
   5294 ****        66.5000  16.7500  26.7500 Du        
   5295 ****        66.5000  16.7500  27.0000 Du        
   5296 ****        66.5000  16.7500  27.2500 Du        
   5297 ****        66.5000  16.7500  27.5000 Du        
   5298 ****        66.5000  16.7500  27.7500 Du        
   5299 ****        66.5000  16.7500  28.0000 Du        
   5300 ****        66.5000  16.7500  29.7500 Du        
   5301 ****        66.5000  16.7500  30.0000 Du        
   5302 ****        66.5000  17.0000  26.5000 Du        
   5303 ****        66.5000  17.0000  26.7500 Du        
   5304 ****        66.5000  17.0000  27.0000 Du        
   5305 ****        66.5000  17.0000  27.2500 Du        
   5306 ****        66.5000  17.0000  27.5000 Du        
   5307 ****        66.5000  17.0000  27.7500 Du        
   5308 ****        66.5000  17.0000  28.0000 Du        
   5309 ****        66.5000  17.0000  29.7500 Du        
   5310 ****        66.5000  17.0000  30.0000 Du        
   5311 ****        66.5000  17.2500  26.2500 Du        
   5312 ****        66.5000  17.2500  26.5000 Du        
   5313 ****        66.5000  17.2500  26.7500 Du        
   5314 ****        66.5000  17.2500  27.0000 Du        
   5315 ****        66.5000  17.2500  27.2500 Du        
   5316 ****        66.5000  17.2500  27.5000 Du        
   5317 ****        66.5000  17.2500  27.7500 Du        
   5318 ****        66.5000  17.2500  28.0000 Du        
   5319 ****        66.5000  17.2500  29.7500 Du        
   5320 ****        66.5000  17.2500  30.0000 Du        
   5321 ****        66.5000  17.5000  26.2500 Du        
   5322 ****        66.5000  17.5000  26.5000 Du        
   5323 ****        66.5000  17.5000  26.7500 Du        
   5324 ****        66.5000  17.5000  27.0000 Du        
   5325 ****        66.5000  17.5000  27.2500 Du        
   5326 ****        66.5000  17.5000  27.5000 Du        
   5327 ****        66.5000  17.5000  27.7500 Du        
   5328 ****        66.5000  17.5000  28.0000 Du        
   5329 ****        66.5000  17.5000  29.7500 Du        
   5330 ****        66.5000  17.7500  26.2500 Du        
   5331 ****        66.5000  17.7500  26.5000 Du        
   5332 ****        66.5000  17.7500  26.7500 Du        
   5333 ****        66.5000  17.7500  27.0000 Du        
   5334 ****        66.5000  17.7500  27.2500 Du        
   5335 ****        66.5000  17.7500  27.5000 Du        
   5336 ****        66.5000  17.7500  27.7500 Du        
   5337 ****        66.5000  17.7500  28.0000 Du        
   5338 ****        66.5000  17.7500  28.2500 Du        
   5339 ****        66.5000  17.7500  29.5000 Du        
   5340 ****        66.5000  17.7500  29.7500 Du        
   5341 ****        66.5000  17.7500  30.0000 Du        
   5342 ****        66.5000  18.0000  26.0000 Du        
   5343 ****        66.5000  18.0000  26.2500 Du        
   5344 ****        66.5000  18.0000  26.5000 Du        
   5345 ****        66.5000  18.0000  26.7500 Du        
   5346 ****        66.5000  18.0000  27.0000 Du        
   5347 ****        66.5000  18.0000  27.2500 Du        
   5348 ****        66.5000  18.0000  27.5000 Du        
   5349 ****        66.5000  18.0000  27.7500 Du        
   5350 ****        66.5000  18.0000  28.0000 Du        
   5351 ****        66.5000  18.0000  28.2500 Du        
   5352 ****        66.5000  18.0000  29.2500 Du        
   5353 ****        66.5000  18.0000  29.5000 Du        
   5354 ****        66.5000  18.0000  29.7500 Du        
   5355 ****        66.5000  18.0000  30.0000 Du        
   5356 ****        66.5000  18.2500  25.7500 Du        
   5357 ****        66.5000  18.2500  26.0000 Du        
   5358 ****        66.5000  18.2500  26.2500 Du        
   5359 ****        66.5000  18.2500  26.5000 Du        
   5360 ****        66.5000  18.2500  26.7500 Du        
   5361 ****        66.5000  18.2500  27.0000 Du        
   5362 ****        66.5000  18.2500  27.2500 Du        
   5363 ****        66.5000  18.2500  27.5000 Du        
   5364 ****        66.5000  18.2500  27.7500 Du        
   5365 ****        66.5000  18.2500  28.0000 Du        
   5366 ****        66.5000  18.2500  28.2500 Du        
   5367 ****        66.5000  18.2500  29.5000 Du        
   5368 ****        66.5000  18.2500  29.7500 Du        
   5369 ****        66.5000  18.5000  25.7500 Du        
   5370 ****        66.5000  18.5000  26.0000 Du        
   5371 ****        66.5000  18.5000  26.2500 Du        
   5372 ****        66.5000  18.5000  26.5000 Du        
   5373 ****        66.5000  18.5000  26.7500 Du        
   5374 ****        66.5000  18.5000  27.0000 Du        
   5375 ****        66.5000  18.5000  27.2500 Du        
   5376 ****        66.5000  18.5000  27.5000 Du        
   5377 ****        66.5000  18.5000  27.7500 Du        
   5378 ****        66.5000  18.5000  28.0000 Du        
   5379 ****        66.5000  18.5000  28.2500 Du        
   5380 ****        66.5000  18.5000  29.2500 Du        
   5381 ****        66.5000  18.5000  29.5000 Du        
   5382 ****        66.5000  18.5000  29.7500 Du        
   5383 ****        66.5000  18.7500  25.5000 Du        
   5384 ****        66.5000  18.7500  25.7500 Du        
   5385 ****        66.5000  18.7500  26.0000 Du        
   5386 ****        66.5000  18.7500  26.2500 Du        
   5387 ****        66.5000  18.7500  26.5000 Du        
   5388 ****        66.5000  18.7500  26.7500 Du        
   5389 ****        66.5000  18.7500  27.0000 Du        
   5390 ****        66.5000  18.7500  27.2500 Du        
   5391 ****        66.5000  18.7500  27.5000 Du        
   5392 ****        66.5000  18.7500  27.7500 Du        
   5393 ****        66.5000  18.7500  28.0000 Du        
   5394 ****        66.5000  18.7500  28.2500 Du        
   5395 ****        66.5000  18.7500  28.5000 Du        
   5396 ****        66.5000  18.7500  28.7500 Du        
   5397 ****        66.5000  18.7500  29.0000 Du        
   5398 ****        66.5000  18.7500  29.2500 Du        
   5399 ****        66.5000  18.7500  29.5000 Du        
   5400 ****        66.5000  19.0000  25.2500 Du        
   5401 ****        66.5000  19.0000  25.5000 Du        
   5402 ****        66.5000  19.0000  25.7500 Du        
   5403 ****        66.5000  19.0000  26.0000 Du        
   5404 ****        66.5000  19.0000  26.2500 Du        
   5405 ****        66.5000  19.0000  26.5000 Du        
   5406 ****        66.5000  19.0000  26.7500 Du        
   5407 ****        66.5000  19.0000  27.0000 Du        
   5408 ****        66.5000  19.0000  27.2500 Du        
   5409 ****        66.5000  19.0000  27.5000 Du        
   5410 ****        66.5000  19.0000  27.7500 Du        
   5411 ****        66.5000  19.0000  28.0000 Du        
   5412 ****        66.5000  19.0000  28.2500 Du        
   5413 ****        66.5000  19.0000  28.5000 Du        
   5414 ****        66.5000  19.0000  28.7500 Du        
   5415 ****        66.5000  19.0000  29.0000 Du        
   5416 ****        66.5000  19.0000  29.2500 Du        
   5417 ****        66.5000  19.0000  29.5000 Du        
   5418 ****        66.5000  19.2500  25.0000 Du        
   5419 ****        66.5000  19.2500  25.2500 Du        
   5420 ****        66.5000  19.2500  25.5000 Du        
   5421 ****        66.5000  19.2500  25.7500 Du        
   5422 ****        66.5000  19.2500  26.0000 Du        
   5423 ****        66.5000  19.2500  26.2500 Du        
   5424 ****        66.5000  19.2500  26.5000 Du        
   5425 ****        66.5000  19.2500  26.7500 Du        
   5426 ****        66.5000  19.2500  27.0000 Du        
   5427 ****        66.5000  19.2500  27.2500 Du        
   5428 ****        66.5000  19.2500  27.5000 Du        
   5429 ****        66.5000  19.2500  27.7500 Du        
   5430 ****        66.5000  19.2500  28.0000 Du        
   5431 ****        66.5000  19.2500  28.2500 Du        
   5432 ****        66.5000  19.2500  28.5000 Du        
   5433 ****        66.5000  19.2500  28.7500 Du        
   5434 ****        66.5000  19.2500  29.0000 Du        
   5435 ****        66.5000  19.2500  29.2500 Du        
   5436 ****        66.5000  19.5000  25.2500 Du        
   5437 ****        66.5000  19.5000  25.5000 Du        
   5438 ****        66.5000  19.5000  25.7500 Du        
   5439 ****        66.5000  19.5000  26.0000 Du        
   5440 ****        66.5000  19.5000  26.2500 Du        
   5441 ****        66.5000  19.5000  26.5000 Du        
   5442 ****        66.5000  19.5000  26.7500 Du        
   5443 ****        66.5000  19.5000  27.0000 Du        
   5444 ****        66.5000  19.5000  27.2500 Du        
   5445 ****        66.5000  19.5000  27.5000 Du        
   5446 ****        66.5000  19.5000  27.7500 Du        
   5447 ****        66.5000  19.5000  28.0000 Du        
   5448 ****        66.5000  19.5000  28.2500 Du        
   5449 ****        66.5000  19.5000  28.5000 Du        
   5450 ****        66.5000  19.5000  28.7500 Du        
   5451 ****        66.5000  19.5000  29.0000 Du        
   5452 ****        66.5000  19.5000  29.2500 Du        
   5453 ****        66.5000  19.7500  25.7500 Du        
   5454 ****        66.5000  19.7500  26.0000 Du        
   5455 ****        66.5000  19.7500  26.2500 Du        
   5456 ****        66.5000  19.7500  27.7500 Du        
   5457 ****        66.5000  19.7500  28.0000 Du        
   5458 ****        66.5000  19.7500  28.2500 Du        
   5459 ****        66.5000  19.7500  28.5000 Du        
   5460 ****        66.5000  19.7500  28.7500 Du        
   5461 ****        66.5000  19.7500  29.0000 Du        
   5462 ****        66.5000  20.0000  28.5000 Du        
   5463 ****        66.5000  20.0000  28.7500 Du        
   5464 ****        66.7500  14.2500  30.2500 Du        
   5465 ****        66.7500  14.5000  30.0000 Du        
   5466 ****        66.7500  14.5000  30.2500 Du        
   5467 ****        66.7500  14.5000  30.5000 Du        
   5468 ****        66.7500  14.7500  29.5000 Du        
   5469 ****        66.7500  14.7500  29.7500 Du        
   5470 ****        66.7500  14.7500  30.0000 Du        
   5471 ****        66.7500  14.7500  30.2500 Du        
   5472 ****        66.7500  14.7500  30.5000 Du        
   5473 ****        66.7500  14.7500  30.7500 Du        
   5474 ****        66.7500  14.7500  31.0000 Du        
   5475 ****        66.7500  15.0000  29.5000 Du        
   5476 ****        66.7500  15.0000  29.7500 Du        
   5477 ****        66.7500  15.0000  30.0000 Du        
   5478 ****        66.7500  15.0000  30.2500 Du        
   5479 ****        66.7500  15.0000  30.5000 Du        
   5480 ****        66.7500  15.0000  30.7500 Du        
   5481 ****        66.7500  15.0000  31.0000 Du        
   5482 ****        66.7500  15.2500  29.2500 Du        
   5483 ****        66.7500  15.2500  29.5000 Du        
   5484 ****        66.7500  15.2500  29.7500 Du        
   5485 ****        66.7500  15.2500  30.0000 Du        
   5486 ****        66.7500  15.2500  30.2500 Du        
   5487 ****        66.7500  15.2500  30.5000 Du        
   5488 ****        66.7500  15.2500  30.7500 Du        
   5489 ****        66.7500  15.2500  31.0000 Du        
   5490 ****        66.7500  15.2500  31.2500 Du        
   5491 ****        66.7500  15.5000  29.2500 Du        
   5492 ****        66.7500  15.5000  29.5000 Du        
   5493 ****        66.7500  15.5000  29.7500 Du        
   5494 ****        66.7500  15.5000  30.0000 Du        
   5495 ****        66.7500  15.5000  30.2500 Du        
   5496 ****        66.7500  15.5000  30.5000 Du        
   5497 ****        66.7500  15.5000  30.7500 Du        
   5498 ****        66.7500  15.5000  31.0000 Du        
   5499 ****        66.7500  15.7500  29.0000 Du        
   5500 ****        66.7500  15.7500  29.2500 Du        
   5501 ****        66.7500  15.7500  29.5000 Du        
   5502 ****        66.7500  15.7500  29.7500 Du        
   5503 ****        66.7500  15.7500  30.0000 Du        
   5504 ****        66.7500  15.7500  30.2500 Du        
   5505 ****        66.7500  15.7500  30.5000 Du        
   5506 ****        66.7500  15.7500  30.7500 Du        
   5507 ****        66.7500  16.0000  29.0000 Du        
   5508 ****        66.7500  16.0000  29.2500 Du        
   5509 ****        66.7500  16.0000  29.5000 Du        
   5510 ****        66.7500  16.0000  29.7500 Du        
   5511 ****        66.7500  16.0000  30.0000 Du        
   5512 ****        66.7500  16.0000  30.2500 Du        
   5513 ****        66.7500  16.0000  30.5000 Du        
   5514 ****        66.7500  16.2500  27.0000 Du        
   5515 ****        66.7500  16.2500  27.2500 Du        
   5516 ****        66.7500  16.2500  27.5000 Du        
   5517 ****        66.7500  16.2500  27.7500 Du        
   5518 ****        66.7500  16.2500  28.0000 Du        
   5519 ****        66.7500  16.2500  29.5000 Du        
   5520 ****        66.7500  16.2500  29.7500 Du        
   5521 ****        66.7500  16.2500  30.0000 Du        
   5522 ****        66.7500  16.2500  30.2500 Du        
   5523 ****        66.7500  16.2500  30.5000 Du        
   5524 ****        66.7500  16.5000  26.7500 Du        
   5525 ****        66.7500  16.5000  27.0000 Du        
   5526 ****        66.7500  16.5000  27.2500 Du        
   5527 ****        66.7500  16.5000  27.5000 Du        
   5528 ****        66.7500  16.5000  27.7500 Du        
   5529 ****        66.7500  16.5000  28.0000 Du        
   5530 ****        66.7500  16.5000  29.7500 Du        
   5531 ****        66.7500  16.5000  30.0000 Du        
   5532 ****        66.7500  16.5000  30.2500 Du        
   5533 ****        66.7500  16.7500  26.5000 Du        
   5534 ****        66.7500  16.7500  26.7500 Du        
   5535 ****        66.7500  16.7500  27.0000 Du        
   5536 ****        66.7500  16.7500  27.2500 Du        
   5537 ****        66.7500  16.7500  27.5000 Du        
   5538 ****        66.7500  16.7500  27.7500 Du        
   5539 ****        66.7500  16.7500  28.0000 Du        
   5540 ****        66.7500  16.7500  28.2500 Du        
   5541 ****        66.7500  16.7500  29.5000 Du        
   5542 ****        66.7500  16.7500  29.7500 Du        
   5543 ****        66.7500  16.7500  30.0000 Du        
   5544 ****        66.7500  17.0000  26.2500 Du        
   5545 ****        66.7500  17.0000  26.5000 Du        
   5546 ****        66.7500  17.0000  26.7500 Du        
   5547 ****        66.7500  17.0000  27.0000 Du        
   5548 ****        66.7500  17.0000  27.2500 Du        
   5549 ****        66.7500  17.0000  27.5000 Du        
   5550 ****        66.7500  17.0000  27.7500 Du        
   5551 ****        66.7500  17.0000  28.0000 Du        
   5552 ****        66.7500  17.0000  28.2500 Du        
   5553 ****        66.7500  17.0000  29.5000 Du        
   5554 ****        66.7500  17.0000  29.7500 Du        
   5555 ****        66.7500  17.0000  30.0000 Du        
   5556 ****        66.7500  17.2500  26.2500 Du        
   5557 ****        66.7500  17.2500  26.5000 Du        
   5558 ****        66.7500  17.2500  26.7500 Du        
   5559 ****        66.7500  17.2500  27.0000 Du        
   5560 ****        66.7500  17.2500  27.2500 Du        
   5561 ****        66.7500  17.2500  27.5000 Du        
   5562 ****        66.7500  17.2500  27.7500 Du        
   5563 ****        66.7500  17.2500  28.0000 Du        
   5564 ****        66.7500  17.2500  28.2500 Du        
   5565 ****        66.7500  17.2500  29.5000 Du        
   5566 ****        66.7500  17.2500  29.7500 Du        
   5567 ****        66.7500  17.2500  30.0000 Du        
   5568 ****        66.7500  17.5000  26.2500 Du        
   5569 ****        66.7500  17.5000  26.5000 Du        
   5570 ****        66.7500  17.5000  26.7500 Du        
   5571 ****        66.7500  17.5000  27.0000 Du        
   5572 ****        66.7500  17.5000  27.2500 Du        
   5573 ****        66.7500  17.5000  27.5000 Du        
   5574 ****        66.7500  17.5000  27.7500 Du        
   5575 ****        66.7500  17.5000  28.0000 Du        
   5576 ****        66.7500  17.5000  28.2500 Du        
   5577 ****        66.7500  17.5000  29.7500 Du        
   5578 ****        66.7500  17.7500  26.0000 Du        
   5579 ****        66.7500  17.7500  26.2500 Du        
   5580 ****        66.7500  17.7500  26.5000 Du        
   5581 ****        66.7500  17.7500  26.7500 Du        
   5582 ****        66.7500  17.7500  27.0000 Du        
   5583 ****        66.7500  17.7500  27.2500 Du        
   5584 ****        66.7500  17.7500  27.5000 Du        
   5585 ****        66.7500  17.7500  27.7500 Du        
   5586 ****        66.7500  17.7500  28.0000 Du        
   5587 ****        66.7500  17.7500  28.2500 Du        
   5588 ****        66.7500  17.7500  29.0000 Du        
   5589 ****        66.7500  17.7500  29.2500 Du        
   5590 ****        66.7500  17.7500  29.5000 Du        
   5591 ****        66.7500  17.7500  29.7500 Du        
   5592 ****        66.7500  17.7500  30.0000 Du        
   5593 ****        66.7500  18.0000  26.0000 Du        
   5594 ****        66.7500  18.0000  26.2500 Du        
   5595 ****        66.7500  18.0000  26.5000 Du        
   5596 ****        66.7500  18.0000  26.7500 Du        
   5597 ****        66.7500  18.0000  27.0000 Du        
   5598 ****        66.7500  18.0000  27.2500 Du        
   5599 ****        66.7500  18.0000  27.5000 Du        
   5600 ****        66.7500  18.0000  27.7500 Du        
   5601 ****        66.7500  18.0000  28.0000 Du        
   5602 ****        66.7500  18.0000  28.2500 Du        
   5603 ****        66.7500  18.0000  28.7500 Du        
   5604 ****        66.7500  18.0000  29.0000 Du        
   5605 ****        66.7500  18.0000  29.2500 Du        
   5606 ****        66.7500  18.0000  29.5000 Du        
   5607 ****        66.7500  18.0000  29.7500 Du        
   5608 ****        66.7500  18.0000  30.0000 Du        
   5609 ****        66.7500  18.2500  25.7500 Du        
   5610 ****        66.7500  18.2500  26.0000 Du        
   5611 ****        66.7500  18.2500  26.2500 Du        
   5612 ****        66.7500  18.2500  26.5000 Du        
   5613 ****        66.7500  18.2500  26.7500 Du        
   5614 ****        66.7500  18.2500  27.0000 Du        
   5615 ****        66.7500  18.2500  27.2500 Du        
   5616 ****        66.7500  18.2500  27.5000 Du        
   5617 ****        66.7500  18.2500  27.7500 Du        
   5618 ****        66.7500  18.2500  28.0000 Du        
   5619 ****        66.7500  18.2500  28.2500 Du        
   5620 ****        66.7500  18.2500  28.7500 Du        
   5621 ****        66.7500  18.2500  29.0000 Du        
   5622 ****        66.7500  18.2500  29.2500 Du        
   5623 ****        66.7500  18.2500  29.5000 Du        
   5624 ****        66.7500  18.2500  29.7500 Du        
   5625 ****        66.7500  18.2500  30.0000 Du        
   5626 ****        66.7500  18.5000  25.7500 Du        
   5627 ****        66.7500  18.5000  26.0000 Du        
   5628 ****        66.7500  18.5000  26.2500 Du        
   5629 ****        66.7500  18.5000  26.5000 Du        
   5630 ****        66.7500  18.5000  26.7500 Du        
   5631 ****        66.7500  18.5000  27.0000 Du        
   5632 ****        66.7500  18.5000  27.2500 Du        
   5633 ****        66.7500  18.5000  27.5000 Du        
   5634 ****        66.7500  18.5000  27.7500 Du        
   5635 ****        66.7500  18.5000  28.0000 Du        
   5636 ****        66.7500  18.5000  28.2500 Du        
   5637 ****        66.7500  18.5000  28.5000 Du        
   5638 ****        66.7500  18.5000  28.7500 Du        
   5639 ****        66.7500  18.5000  29.0000 Du        
   5640 ****        66.7500  18.5000  29.2500 Du        
   5641 ****        66.7500  18.5000  29.5000 Du        
   5642 ****        66.7500  18.5000  29.7500 Du        
   5643 ****        66.7500  18.5000  30.0000 Du        
   5644 ****        66.7500  18.7500  25.5000 Du        
   5645 ****        66.7500  18.7500  25.7500 Du        
   5646 ****        66.7500  18.7500  26.0000 Du        
   5647 ****        66.7500  18.7500  26.2500 Du        
   5648 ****        66.7500  18.7500  26.5000 Du        
   5649 ****        66.7500  18.7500  26.7500 Du        
   5650 ****        66.7500  18.7500  27.0000 Du        
   5651 ****        66.7500  18.7500  27.2500 Du        
   5652 ****        66.7500  18.7500  27.5000 Du        
   5653 ****        66.7500  18.7500  27.7500 Du        
   5654 ****        66.7500  18.7500  28.0000 Du        
   5655 ****        66.7500  18.7500  28.2500 Du        
   5656 ****        66.7500  18.7500  28.5000 Du        
   5657 ****        66.7500  18.7500  28.7500 Du        
   5658 ****        66.7500  18.7500  29.0000 Du        
   5659 ****        66.7500  18.7500  29.2500 Du        
   5660 ****        66.7500  18.7500  29.5000 Du        
   5661 ****        66.7500  18.7500  29.7500 Du        
   5662 ****        66.7500  19.0000  25.2500 Du        
   5663 ****        66.7500  19.0000  25.5000 Du        
   5664 ****        66.7500  19.0000  25.7500 Du        
   5665 ****        66.7500  19.0000  26.0000 Du        
   5666 ****        66.7500  19.0000  26.2500 Du        
   5667 ****        66.7500  19.0000  26.5000 Du        
   5668 ****        66.7500  19.0000  26.7500 Du        
   5669 ****        66.7500  19.0000  27.0000 Du        
   5670 ****        66.7500  19.0000  27.2500 Du        
   5671 ****        66.7500  19.0000  27.5000 Du        
   5672 ****        66.7500  19.0000  27.7500 Du        
   5673 ****        66.7500  19.0000  28.0000 Du        
   5674 ****        66.7500  19.0000  28.2500 Du        
   5675 ****        66.7500  19.0000  28.5000 Du        
   5676 ****        66.7500  19.0000  28.7500 Du        
   5677 ****        66.7500  19.0000  29.0000 Du        
   5678 ****        66.7500  19.0000  29.2500 Du        
   5679 ****        66.7500  19.0000  29.5000 Du        
   5680 ****        66.7500  19.2500  25.2500 Du        
   5681 ****        66.7500  19.2500  25.5000 Du        
   5682 ****        66.7500  19.2500  25.7500 Du        
   5683 ****        66.7500  19.2500  26.0000 Du        
   5684 ****        66.7500  19.2500  26.2500 Du        
   5685 ****        66.7500  19.2500  26.5000 Du        
   5686 ****        66.7500  19.2500  26.7500 Du        
   5687 ****        66.7500  19.2500  27.0000 Du        
   5688 ****        66.7500  19.2500  27.2500 Du        
   5689 ****        66.7500  19.2500  27.5000 Du        
   5690 ****        66.7500  19.2500  27.7500 Du        
   5691 ****        66.7500  19.2500  28.0000 Du        
   5692 ****        66.7500  19.2500  28.2500 Du        
   5693 ****        66.7500  19.2500  28.5000 Du        
   5694 ****        66.7500  19.2500  28.7500 Du        
   5695 ****        66.7500  19.2500  29.0000 Du        
   5696 ****        66.7500  19.2500  29.2500 Du        
   5697 ****        66.7500  19.2500  29.5000 Du        
   5698 ****        66.7500  19.5000  25.2500 Du        
   5699 ****        66.7500  19.5000  25.5000 Du        
   5700 ****        66.7500  19.5000  25.7500 Du        
   5701 ****        66.7500  19.5000  26.0000 Du        
   5702 ****        66.7500  19.5000  26.2500 Du        
   5703 ****        66.7500  19.5000  26.5000 Du        
   5704 ****        66.7500  19.5000  26.7500 Du        
   5705 ****        66.7500  19.5000  27.0000 Du        
   5706 ****        66.7500  19.5000  27.2500 Du        
   5707 ****        66.7500  19.5000  27.5000 Du        
   5708 ****        66.7500  19.5000  27.7500 Du        
   5709 ****        66.7500  19.5000  28.0000 Du        
   5710 ****        66.7500  19.5000  28.2500 Du        
   5711 ****        66.7500  19.5000  28.5000 Du        
   5712 ****        66.7500  19.5000  28.7500 Du        
   5713 ****        66.7500  19.5000  29.0000 Du        
   5714 ****        66.7500  19.5000  29.2500 Du        
   5715 ****        66.7500  19.7500  28.0000 Du        
   5716 ****        66.7500  19.7500  28.2500 Du        
   5717 ****        66.7500  19.7500  28.5000 Du        
   5718 ****        66.7500  19.7500  28.7500 Du        
   5719 ****        66.7500  19.7500  29.0000 Du        
   5720 ****        66.7500  19.7500  29.2500 Du        
   5721 ****        66.7500  20.0000  28.2500 Du        
   5722 ****        66.7500  20.0000  28.5000 Du        
   5723 ****        66.7500  20.0000  28.7500 Du        
   5724 ****        66.7500  20.0000  29.0000 Du        
   5725 ****        67.0000  14.7500  29.5000 Du        
   5726 ****        67.0000  14.7500  29.7500 Du        
   5727 ****        67.0000  14.7500  30.0000 Du        
   5728 ****        67.0000  14.7500  30.2500 Du        
   5729 ****        67.0000  15.0000  29.5000 Du        
   5730 ****        67.0000  15.0000  29.7500 Du        
   5731 ****        67.0000  15.0000  30.0000 Du        
   5732 ****        67.0000  15.0000  30.2500 Du        
   5733 ****        67.0000  15.0000  30.5000 Du        
   5734 ****        67.0000  15.2500  29.2500 Du        
   5735 ****        67.0000  15.2500  29.5000 Du        
   5736 ****        67.0000  15.2500  29.7500 Du        
   5737 ****        67.0000  15.2500  30.0000 Du        
   5738 ****        67.0000  15.2500  30.2500 Du        
   5739 ****        67.0000  15.2500  30.5000 Du        
   5740 ****        67.0000  15.2500  30.7500 Du        
   5741 ****        67.0000  15.5000  29.0000 Du        
   5742 ****        67.0000  15.5000  29.2500 Du        
   5743 ****        67.0000  15.5000  29.5000 Du        
   5744 ****        67.0000  15.5000  29.7500 Du        
   5745 ****        67.0000  15.5000  30.0000 Du        
   5746 ****        67.0000  15.5000  30.2500 Du        
   5747 ****        67.0000  15.5000  30.5000 Du        
   5748 ****        67.0000  15.5000  30.7500 Du        
   5749 ****        67.0000  15.7500  29.0000 Du        
   5750 ****        67.0000  15.7500  29.2500 Du        
   5751 ****        67.0000  15.7500  29.5000 Du        
   5752 ****        67.0000  15.7500  29.7500 Du        
   5753 ****        67.0000  15.7500  30.0000 Du        
   5754 ****        67.0000  15.7500  30.2500 Du        
   5755 ****        67.0000  15.7500  30.5000 Du        
   5756 ****        67.0000  15.7500  30.7500 Du        
   5757 ****        67.0000  16.0000  28.0000 Du        
   5758 ****        67.0000  16.0000  29.0000 Du        
   5759 ****        67.0000  16.0000  29.2500 Du        
   5760 ****        67.0000  16.0000  29.5000 Du        
   5761 ****        67.0000  16.0000  29.7500 Du        
   5762 ****        67.0000  16.0000  30.0000 Du        
   5763 ****        67.0000  16.0000  30.2500 Du        
   5764 ****        67.0000  16.0000  30.5000 Du        
   5765 ****        67.0000  16.2500  27.0000 Du        
   5766 ****        67.0000  16.2500  27.2500 Du        
   5767 ****        67.0000  16.2500  27.5000 Du        
   5768 ****        67.0000  16.2500  27.7500 Du        
   5769 ****        67.0000  16.2500  28.0000 Du        
   5770 ****        67.0000  16.2500  28.2500 Du        
   5771 ****        67.0000  16.2500  29.5000 Du        
   5772 ****        67.0000  16.2500  29.7500 Du        
   5773 ****        67.0000  16.2500  30.0000 Du        
   5774 ****        67.0000  16.2500  30.2500 Du        
   5775 ****        67.0000  16.2500  30.5000 Du        
   5776 ****        67.0000  16.5000  26.7500 Du        
   5777 ****        67.0000  16.5000  27.0000 Du        
   5778 ****        67.0000  16.5000  27.2500 Du        
   5779 ****        67.0000  16.5000  27.5000 Du        
   5780 ****        67.0000  16.5000  27.7500 Du        
   5781 ****        67.0000  16.5000  28.0000 Du        
   5782 ****        67.0000  16.5000  29.7500 Du        
   5783 ****        67.0000  16.5000  30.0000 Du        
   5784 ****        67.0000  16.5000  30.2500 Du        
   5785 ****        67.0000  16.7500  26.5000 Du        
   5786 ****        67.0000  16.7500  26.7500 Du        
   5787 ****        67.0000  16.7500  27.0000 Du        
   5788 ****        67.0000  16.7500  27.2500 Du        
   5789 ****        67.0000  16.7500  27.5000 Du        
   5790 ****        67.0000  16.7500  27.7500 Du        
   5791 ****        67.0000  16.7500  28.0000 Du        
   5792 ****        67.0000  16.7500  28.2500 Du        
   5793 ****        67.0000  16.7500  29.0000 Du        
   5794 ****        67.0000  16.7500  29.5000 Du        
   5795 ****        67.0000  16.7500  29.7500 Du        
   5796 ****        67.0000  16.7500  30.0000 Du        
   5797 ****        67.0000  16.7500  30.2500 Du        
   5798 ****        67.0000  17.0000  26.2500 Du        
   5799 ****        67.0000  17.0000  26.5000 Du        
   5800 ****        67.0000  17.0000  26.7500 Du        
   5801 ****        67.0000  17.0000  27.0000 Du        
   5802 ****        67.0000  17.0000  27.2500 Du        
   5803 ****        67.0000  17.0000  27.5000 Du        
   5804 ****        67.0000  17.0000  27.7500 Du        
   5805 ****        67.0000  17.0000  28.0000 Du        
   5806 ****        67.0000  17.0000  28.2500 Du        
   5807 ****        67.0000  17.0000  29.0000 Du        
   5808 ****        67.0000  17.0000  29.2500 Du        
   5809 ****        67.0000  17.0000  29.5000 Du        
   5810 ****        67.0000  17.0000  29.7500 Du        
   5811 ****        67.0000  17.0000  30.0000 Du        
   5812 ****        67.0000  17.2500  26.2500 Du        
   5813 ****        67.0000  17.2500  26.5000 Du        
   5814 ****        67.0000  17.2500  26.7500 Du        
   5815 ****        67.0000  17.2500  27.0000 Du        
   5816 ****        67.0000  17.2500  27.2500 Du        
   5817 ****        67.0000  17.2500  27.5000 Du        
   5818 ****        67.0000  17.2500  27.7500 Du        
   5819 ****        67.0000  17.2500  28.0000 Du        
   5820 ****        67.0000  17.2500  28.2500 Du        
   5821 ****        67.0000  17.2500  29.0000 Du        
   5822 ****        67.0000  17.2500  29.2500 Du        
   5823 ****        67.0000  17.2500  29.5000 Du        
   5824 ****        67.0000  17.2500  29.7500 Du        
   5825 ****        67.0000  17.2500  30.0000 Du        
   5826 ****        67.0000  17.5000  26.0000 Du        
   5827 ****        67.0000  17.5000  26.2500 Du        
   5828 ****        67.0000  17.5000  26.5000 Du        
   5829 ****        67.0000  17.5000  26.7500 Du        
   5830 ****        67.0000  17.5000  27.0000 Du        
   5831 ****        67.0000  17.5000  27.2500 Du        
   5832 ****        67.0000  17.5000  27.5000 Du        
   5833 ****        67.0000  17.5000  27.7500 Du        
   5834 ****        67.0000  17.5000  28.0000 Du        
   5835 ****        67.0000  17.5000  28.2500 Du        
   5836 ****        67.0000  17.5000  29.2500 Du        
   5837 ****        67.0000  17.5000  29.7500 Du        
   5838 ****        67.0000  17.7500  26.0000 Du        
   5839 ****        67.0000  17.7500  26.2500 Du        
   5840 ****        67.0000  17.7500  26.5000 Du        
   5841 ****        67.0000  17.7500  26.7500 Du        
   5842 ****        67.0000  17.7500  27.0000 Du        
   5843 ****        67.0000  17.7500  27.2500 Du        
   5844 ****        67.0000  17.7500  27.5000 Du        
   5845 ****        67.0000  17.7500  27.7500 Du        
   5846 ****        67.0000  17.7500  28.0000 Du        
   5847 ****        67.0000  17.7500  28.2500 Du        
   5848 ****        67.0000  17.7500  28.7500 Du        
   5849 ****        67.0000  17.7500  29.0000 Du        
   5850 ****        67.0000  17.7500  29.2500 Du        
   5851 ****        67.0000  17.7500  29.5000 Du        
   5852 ****        67.0000  17.7500  29.7500 Du        
   5853 ****        67.0000  17.7500  30.0000 Du        
   5854 ****        67.0000  18.0000  25.7500 Du        
   5855 ****        67.0000  18.0000  26.0000 Du        
   5856 ****        67.0000  18.0000  26.2500 Du        
   5857 ****        67.0000  18.0000  26.5000 Du        
   5858 ****        67.0000  18.0000  26.7500 Du        
   5859 ****        67.0000  18.0000  27.0000 Du        
   5860 ****        67.0000  18.0000  27.2500 Du        
   5861 ****        67.0000  18.0000  27.5000 Du        
   5862 ****        67.0000  18.0000  27.7500 Du        
   5863 ****        67.0000  18.0000  28.0000 Du        
   5864 ****        67.0000  18.0000  28.2500 Du        
   5865 ****        67.0000  18.0000  28.7500 Du        
   5866 ****        67.0000  18.0000  29.0000 Du        
   5867 ****        67.0000  18.0000  29.2500 Du        
   5868 ****        67.0000  18.0000  29.5000 Du        
   5869 ****        67.0000  18.0000  29.7500 Du        
   5870 ****        67.0000  18.0000  30.0000 Du        
   5871 ****        67.0000  18.2500  25.7500 Du        
   5872 ****        67.0000  18.2500  26.0000 Du        
   5873 ****        67.0000  18.2500  26.2500 Du        
   5874 ****        67.0000  18.2500  26.5000 Du        
   5875 ****        67.0000  18.2500  26.7500 Du        
   5876 ****        67.0000  18.2500  27.0000 Du        
   5877 ****        67.0000  18.2500  27.2500 Du        
   5878 ****        67.0000  18.2500  27.5000 Du        
   5879 ****        67.0000  18.2500  27.7500 Du        
   5880 ****        67.0000  18.2500  28.0000 Du        
   5881 ****        67.0000  18.2500  28.2500 Du        
   5882 ****        67.0000  18.2500  28.5000 Du        
   5883 ****        67.0000  18.2500  28.7500 Du        
   5884 ****        67.0000  18.2500  29.0000 Du        
   5885 ****        67.0000  18.2500  29.2500 Du        
   5886 ****        67.0000  18.2500  29.5000 Du        
   5887 ****        67.0000  18.2500  29.7500 Du        
   5888 ****        67.0000  18.2500  30.0000 Du        
   5889 ****        67.0000  18.5000  25.5000 Du        
   5890 ****        67.0000  18.5000  25.7500 Du        
   5891 ****        67.0000  18.5000  26.0000 Du        
   5892 ****        67.0000  18.5000  26.2500 Du        
   5893 ****        67.0000  18.5000  26.5000 Du        
   5894 ****        67.0000  18.5000  26.7500 Du        
   5895 ****        67.0000  18.5000  27.0000 Du        
   5896 ****        67.0000  18.5000  27.2500 Du        
   5897 ****        67.0000  18.5000  27.5000 Du        
   5898 ****        67.0000  18.5000  27.7500 Du        
   5899 ****        67.0000  18.5000  28.0000 Du        
   5900 ****        67.0000  18.5000  28.2500 Du        
   5901 ****        67.0000  18.5000  28.5000 Du        
   5902 ****        67.0000  18.5000  28.7500 Du        
   5903 ****        67.0000  18.5000  29.0000 Du        
   5904 ****        67.0000  18.5000  29.2500 Du        
   5905 ****        67.0000  18.5000  29.5000 Du        
   5906 ****        67.0000  18.5000  29.7500 Du        
   5907 ****        67.0000  18.5000  30.0000 Du        
   5908 ****        67.0000  18.7500  25.5000 Du        
   5909 ****        67.0000  18.7500  25.7500 Du        
   5910 ****        67.0000  18.7500  26.0000 Du        
   5911 ****        67.0000  18.7500  26.2500 Du        
   5912 ****        67.0000  18.7500  26.5000 Du        
   5913 ****        67.0000  18.7500  26.7500 Du        
   5914 ****        67.0000  18.7500  27.0000 Du        
   5915 ****        67.0000  18.7500  27.2500 Du        
   5916 ****        67.0000  18.7500  27.5000 Du        
   5917 ****        67.0000  18.7500  27.7500 Du        
   5918 ****        67.0000  18.7500  28.0000 Du        
   5919 ****        67.0000  18.7500  28.2500 Du        
   5920 ****        67.0000  18.7500  28.5000 Du        
   5921 ****        67.0000  18.7500  28.7500 Du        
   5922 ****        67.0000  18.7500  29.0000 Du        
   5923 ****        67.0000  18.7500  29.2500 Du        
   5924 ****        67.0000  18.7500  29.5000 Du        
   5925 ****        67.0000  18.7500  29.7500 Du        
   5926 ****        67.0000  19.0000  25.2500 Du        
   5927 ****        67.0000  19.0000  25.5000 Du        
   5928 ****        67.0000  19.0000  25.7500 Du        
   5929 ****        67.0000  19.0000  26.0000 Du        
   5930 ****        67.0000  19.0000  26.2500 Du        
   5931 ****        67.0000  19.0000  26.5000 Du        
   5932 ****        67.0000  19.0000  26.7500 Du        
   5933 ****        67.0000  19.0000  27.0000 Du        
   5934 ****        67.0000  19.0000  27.2500 Du        
   5935 ****        67.0000  19.0000  27.5000 Du        
   5936 ****        67.0000  19.0000  27.7500 Du        
   5937 ****        67.0000  19.0000  28.0000 Du        
   5938 ****        67.0000  19.0000  28.2500 Du        
   5939 ****        67.0000  19.0000  28.5000 Du        
   5940 ****        67.0000  19.0000  28.7500 Du        
   5941 ****        67.0000  19.0000  29.0000 Du        
   5942 ****        67.0000  19.0000  29.2500 Du        
   5943 ****        67.0000  19.0000  29.5000 Du        
   5944 ****        67.0000  19.0000  29.7500 Du        
   5945 ****        67.0000  19.2500  25.2500 Du        
   5946 ****        67.0000  19.2500  25.5000 Du        
   5947 ****        67.0000  19.2500  25.7500 Du        
   5948 ****        67.0000  19.2500  26.0000 Du        
   5949 ****        67.0000  19.2500  26.2500 Du        
   5950 ****        67.0000  19.2500  26.5000 Du        
   5951 ****        67.0000  19.2500  26.7500 Du        
   5952 ****        67.0000  19.2500  27.0000 Du        
   5953 ****        67.0000  19.2500  27.2500 Du        
   5954 ****        67.0000  19.2500  27.5000 Du        
   5955 ****        67.0000  19.2500  27.7500 Du        
   5956 ****        67.0000  19.2500  28.0000 Du        
   5957 ****        67.0000  19.2500  28.2500 Du        
   5958 ****        67.0000  19.2500  28.5000 Du        
   5959 ****        67.0000  19.2500  28.7500 Du        
   5960 ****        67.0000  19.2500  29.0000 Du        
   5961 ****        67.0000  19.2500  29.2500 Du        
   5962 ****        67.0000  19.2500  29.5000 Du        
   5963 ****        67.0000  19.5000  25.7500 Du        
   5964 ****        67.0000  19.5000  27.7500 Du        
   5965 ****        67.0000  19.5000  28.0000 Du        
   5966 ****        67.0000  19.5000  28.2500 Du        
   5967 ****        67.0000  19.5000  28.5000 Du        
   5968 ****        67.0000  19.5000  28.7500 Du        
   5969 ****        67.0000  19.5000  29.0000 Du        
   5970 ****        67.0000  19.5000  29.2500 Du        
   5971 ****        67.0000  19.5000  29.5000 Du        
   5972 ****        67.0000  19.7500  28.0000 Du        
   5973 ****        67.0000  19.7500  28.2500 Du        
   5974 ****        67.0000  19.7500  28.5000 Du        
   5975 ****        67.0000  19.7500  28.7500 Du        
   5976 ****        67.0000  19.7500  29.0000 Du        
   5977 ****        67.0000  19.7500  29.2500 Du        
   5978 ****        67.0000  20.0000  28.5000 Du        
   5979 ****        67.0000  20.0000  28.7500 Du        
   5980 ****        67.0000  20.0000  29.0000 Du        
   5981 ****        67.2500  14.7500  29.7500 Du        
   5982 ****        67.2500  15.0000  29.5000 Du        
   5983 ****        67.2500  15.0000  29.7500 Du        
   5984 ****        67.2500  15.0000  30.0000 Du        
   5985 ****        67.2500  15.2500  29.2500 Du        
   5986 ****        67.2500  15.2500  29.5000 Du        
   5987 ****        67.2500  15.2500  29.7500 Du        
   5988 ****        67.2500  15.2500  30.0000 Du        
   5989 ****        67.2500  15.2500  30.2500 Du        
   5990 ****        67.2500  15.5000  29.0000 Du        
   5991 ****        67.2500  15.5000  29.2500 Du        
   5992 ****        67.2500  15.5000  29.5000 Du        
   5993 ****        67.2500  15.5000  29.7500 Du        
   5994 ****        67.2500  15.5000  30.0000 Du        
   5995 ****        67.2500  15.5000  30.2500 Du        
   5996 ****        67.2500  15.5000  30.5000 Du        
   5997 ****        67.2500  15.7500  29.0000 Du        
   5998 ****        67.2500  15.7500  29.2500 Du        
   5999 ****        67.2500  15.7500  29.5000 Du        
   6000 ****        67.2500  15.7500  29.7500 Du        
   6001 ****        67.2500  15.7500  30.0000 Du        
   6002 ****        67.2500  15.7500  30.2500 Du        
   6003 ****        67.2500  15.7500  30.5000 Du        
   6004 ****        67.2500  16.0000  27.7500 Du        
   6005 ****        67.2500  16.0000  28.0000 Du        
   6006 ****        67.2500  16.0000  28.2500 Du        
   6007 ****        67.2500  16.0000  29.0000 Du        
   6008 ****        67.2500  16.0000  29.2500 Du        
   6009 ****        67.2500  16.0000  29.5000 Du        
   6010 ****        67.2500  16.0000  29.7500 Du        
   6011 ****        67.2500  16.0000  30.0000 Du        
   6012 ****        67.2500  16.0000  30.2500 Du        
   6013 ****        67.2500  16.0000  30.5000 Du        
   6014 ****        67.2500  16.2500  27.0000 Du        
   6015 ****        67.2500  16.2500  27.2500 Du        
   6016 ****        67.2500  16.2500  27.5000 Du        
   6017 ****        67.2500  16.2500  27.7500 Du        
   6018 ****        67.2500  16.2500  28.0000 Du        
   6019 ****        67.2500  16.2500  28.2500 Du        
   6020 ****        67.2500  16.2500  29.2500 Du        
   6021 ****        67.2500  16.2500  29.5000 Du        
   6022 ****        67.2500  16.2500  29.7500 Du        
   6023 ****        67.2500  16.2500  30.0000 Du        
   6024 ****        67.2500  16.2500  30.2500 Du        
   6025 ****        67.2500  16.2500  30.5000 Du        
   6026 ****        67.2500  16.5000  27.0000 Du        
   6027 ****        67.2500  16.5000  27.2500 Du        
   6028 ****        67.2500  16.5000  27.5000 Du        
   6029 ****        67.2500  16.5000  27.7500 Du        
   6030 ****        67.2500  16.5000  28.0000 Du        
   6031 ****        67.2500  16.5000  28.2500 Du        
   6032 ****        67.2500  16.5000  29.7500 Du        
   6033 ****        67.2500  16.5000  30.0000 Du        
   6034 ****        67.2500  16.5000  30.2500 Du        
   6035 ****        67.2500  16.7500  26.7500 Du        
   6036 ****        67.2500  16.7500  27.0000 Du        
   6037 ****        67.2500  16.7500  27.2500 Du        
   6038 ****        67.2500  16.7500  27.5000 Du        
   6039 ****        67.2500  16.7500  27.7500 Du        
   6040 ****        67.2500  16.7500  28.0000 Du        
   6041 ****        67.2500  16.7500  28.2500 Du        
   6042 ****        67.2500  16.7500  29.5000 Du        
   6043 ****        67.2500  16.7500  29.7500 Du        
   6044 ****        67.2500  16.7500  30.0000 Du        
   6045 ****        67.2500  16.7500  30.2500 Du        
   6046 ****        67.2500  17.0000  26.2500 Du        
   6047 ****        67.2500  17.0000  26.5000 Du        
   6048 ****        67.2500  17.0000  26.7500 Du        
   6049 ****        67.2500  17.0000  27.0000 Du        
   6050 ****        67.2500  17.0000  27.2500 Du        
   6051 ****        67.2500  17.0000  27.5000 Du        
   6052 ****        67.2500  17.0000  27.7500 Du        
   6053 ****        67.2500  17.0000  28.0000 Du        
   6054 ****        67.2500  17.0000  28.2500 Du        
   6055 ****        67.2500  17.0000  29.0000 Du        
   6056 ****        67.2500  17.0000  29.2500 Du        
   6057 ****        67.2500  17.0000  29.5000 Du        
   6058 ****        67.2500  17.0000  29.7500 Du        
   6059 ****        67.2500  17.0000  30.0000 Du        
   6060 ****        67.2500  17.2500  26.2500 Du        
   6061 ****        67.2500  17.2500  26.5000 Du        
   6062 ****        67.2500  17.2500  26.7500 Du        
   6063 ****        67.2500  17.2500  27.0000 Du        
   6064 ****        67.2500  17.2500  27.2500 Du        
   6065 ****        67.2500  17.2500  27.5000 Du        
   6066 ****        67.2500  17.2500  27.7500 Du        
   6067 ****        67.2500  17.2500  28.0000 Du        
   6068 ****        67.2500  17.2500  28.2500 Du        
   6069 ****        67.2500  17.2500  29.0000 Du        
   6070 ****        67.2500  17.2500  29.2500 Du        
   6071 ****        67.2500  17.2500  29.5000 Du        
   6072 ****        67.2500  17.2500  29.7500 Du        
   6073 ****        67.2500  17.2500  30.0000 Du        
   6074 ****        67.2500  17.5000  26.0000 Du        
   6075 ****        67.2500  17.5000  26.2500 Du        
   6076 ****        67.2500  17.5000  26.5000 Du        
   6077 ****        67.2500  17.5000  26.7500 Du        
   6078 ****        67.2500  17.5000  27.0000 Du        
   6079 ****        67.2500  17.5000  27.2500 Du        
   6080 ****        67.2500  17.5000  27.5000 Du        
   6081 ****        67.2500  17.5000  27.7500 Du        
   6082 ****        67.2500  17.5000  28.0000 Du        
   6083 ****        67.2500  17.5000  28.2500 Du        
   6084 ****        67.2500  17.5000  28.7500 Du        
   6085 ****        67.2500  17.5000  29.0000 Du        
   6086 ****        67.2500  17.5000  29.2500 Du        
   6087 ****        67.2500  17.5000  29.5000 Du        
   6088 ****        67.2500  17.5000  29.7500 Du        
   6089 ****        67.2500  17.7500  25.7500 Du        
   6090 ****        67.2500  17.7500  26.0000 Du        
   6091 ****        67.2500  17.7500  26.2500 Du        
   6092 ****        67.2500  17.7500  26.5000 Du        
   6093 ****        67.2500  17.7500  26.7500 Du        
   6094 ****        67.2500  17.7500  27.0000 Du        
   6095 ****        67.2500  17.7500  27.2500 Du        
   6096 ****        67.2500  17.7500  27.5000 Du        
   6097 ****        67.2500  17.7500  27.7500 Du        
   6098 ****        67.2500  17.7500  28.0000 Du        
   6099 ****        67.2500  17.7500  28.2500 Du        
   6100 ****        67.2500  17.7500  28.7500 Du        
   6101 ****        67.2500  17.7500  29.0000 Du        
   6102 ****        67.2500  17.7500  29.2500 Du        
   6103 ****        67.2500  17.7500  29.5000 Du        
   6104 ****        67.2500  17.7500  29.7500 Du        
   6105 ****        67.2500  17.7500  30.0000 Du        
   6106 ****        67.2500  18.0000  25.7500 Du        
   6107 ****        67.2500  18.0000  26.0000 Du        
   6108 ****        67.2500  18.0000  26.2500 Du        
   6109 ****        67.2500  18.0000  26.5000 Du        
   6110 ****        67.2500  18.0000  26.7500 Du        
   6111 ****        67.2500  18.0000  27.0000 Du        
   6112 ****        67.2500  18.0000  27.2500 Du        
   6113 ****        67.2500  18.0000  27.5000 Du        
   6114 ****        67.2500  18.0000  27.7500 Du        
   6115 ****        67.2500  18.0000  28.0000 Du        
   6116 ****        67.2500  18.0000  28.2500 Du        
   6117 ****        67.2500  18.0000  28.5000 Du        
   6118 ****        67.2500  18.0000  28.7500 Du        
   6119 ****        67.2500  18.0000  29.0000 Du        
   6120 ****        67.2500  18.0000  29.2500 Du        
   6121 ****        67.2500  18.0000  29.5000 Du        
   6122 ****        67.2500  18.0000  29.7500 Du        
   6123 ****        67.2500  18.0000  30.0000 Du        
   6124 ****        67.2500  18.2500  25.7500 Du        
   6125 ****        67.2500  18.2500  26.0000 Du        
   6126 ****        67.2500  18.2500  26.2500 Du        
   6127 ****        67.2500  18.2500  26.5000 Du        
   6128 ****        67.2500  18.2500  26.7500 Du        
   6129 ****        67.2500  18.2500  27.0000 Du        
   6130 ****        67.2500  18.2500  27.2500 Du        
   6131 ****        67.2500  18.2500  27.5000 Du        
   6132 ****        67.2500  18.2500  27.7500 Du        
   6133 ****        67.2500  18.2500  28.0000 Du        
   6134 ****        67.2500  18.2500  28.2500 Du        
   6135 ****        67.2500  18.2500  28.5000 Du        
   6136 ****        67.2500  18.2500  28.7500 Du        
   6137 ****        67.2500  18.2500  29.0000 Du        
   6138 ****        67.2500  18.2500  29.2500 Du        
   6139 ****        67.2500  18.2500  29.5000 Du        
   6140 ****        67.2500  18.2500  29.7500 Du        
   6141 ****        67.2500  18.2500  30.0000 Du        
   6142 ****        67.2500  18.5000  25.7500 Du        
   6143 ****        67.2500  18.5000  26.0000 Du        
   6144 ****        67.2500  18.5000  26.2500 Du        
   6145 ****        67.2500  18.5000  26.5000 Du        
   6146 ****        67.2500  18.5000  26.7500 Du        
   6147 ****        67.2500  18.5000  27.0000 Du        
   6148 ****        67.2500  18.5000  27.2500 Du        
   6149 ****        67.2500  18.5000  27.5000 Du        
   6150 ****        67.2500  18.5000  27.7500 Du        
   6151 ****        67.2500  18.5000  28.0000 Du        
   6152 ****        67.2500  18.5000  28.2500 Du        
   6153 ****        67.2500  18.5000  28.5000 Du        
   6154 ****        67.2500  18.5000  28.7500 Du        
   6155 ****        67.2500  18.5000  29.0000 Du        
   6156 ****        67.2500  18.5000  29.2500 Du        
   6157 ****        67.2500  18.5000  29.5000 Du        
   6158 ****        67.2500  18.5000  29.7500 Du        
   6159 ****        67.2500  18.5000  30.0000 Du        
   6160 ****        67.2500  18.7500  25.5000 Du        
   6161 ****        67.2500  18.7500  25.7500 Du        
   6162 ****        67.2500  18.7500  26.0000 Du        
   6163 ****        67.2500  18.7500  26.2500 Du        
   6164 ****        67.2500  18.7500  26.5000 Du        
   6165 ****        67.2500  18.7500  26.7500 Du        
   6166 ****        67.2500  18.7500  27.0000 Du        
   6167 ****        67.2500  18.7500  27.2500 Du        
   6168 ****        67.2500  18.7500  27.5000 Du        
   6169 ****        67.2500  18.7500  27.7500 Du        
   6170 ****        67.2500  18.7500  28.0000 Du        
   6171 ****        67.2500  18.7500  28.2500 Du        
   6172 ****        67.2500  18.7500  28.5000 Du        
   6173 ****        67.2500  18.7500  28.7500 Du        
   6174 ****        67.2500  18.7500  29.0000 Du        
   6175 ****        67.2500  18.7500  29.2500 Du        
   6176 ****        67.2500  18.7500  29.5000 Du        
   6177 ****        67.2500  18.7500  29.7500 Du        
   6178 ****        67.2500  18.7500  30.0000 Du        
   6179 ****        67.2500  19.0000  25.7500 Du        
   6180 ****        67.2500  19.0000  26.0000 Du        
   6181 ****        67.2500  19.0000  26.2500 Du        
   6182 ****        67.2500  19.0000  26.5000 Du        
   6183 ****        67.2500  19.0000  26.7500 Du        
   6184 ****        67.2500  19.0000  27.0000 Du        
   6185 ****        67.2500  19.0000  27.2500 Du        
   6186 ****        67.2500  19.0000  27.5000 Du        
   6187 ****        67.2500  19.0000  27.7500 Du        
   6188 ****        67.2500  19.0000  28.0000 Du        
   6189 ****        67.2500  19.0000  28.2500 Du        
   6190 ****        67.2500  19.0000  28.5000 Du        
   6191 ****        67.2500  19.0000  28.7500 Du        
   6192 ****        67.2500  19.0000  29.0000 Du        
   6193 ****        67.2500  19.0000  29.2500 Du        
   6194 ****        67.2500  19.0000  29.5000 Du        
   6195 ****        67.2500  19.0000  29.7500 Du        
   6196 ****        67.2500  19.2500  25.7500 Du        
   6197 ****        67.2500  19.2500  26.0000 Du        
   6198 ****        67.2500  19.2500  26.2500 Du        
   6199 ****        67.2500  19.2500  26.5000 Du        
   6200 ****        67.2500  19.2500  26.7500 Du        
   6201 ****        67.2500  19.2500  27.0000 Du        
   6202 ****        67.2500  19.2500  27.2500 Du        
   6203 ****        67.2500  19.2500  27.5000 Du        
   6204 ****        67.2500  19.2500  27.7500 Du        
   6205 ****        67.2500  19.2500  28.0000 Du        
   6206 ****        67.2500  19.2500  28.2500 Du        
   6207 ****        67.2500  19.2500  28.5000 Du        
   6208 ****        67.2500  19.2500  28.7500 Du        
   6209 ****        67.2500  19.2500  29.0000 Du        
   6210 ****        67.2500  19.2500  29.2500 Du        
   6211 ****        67.2500  19.2500  29.5000 Du        
   6212 ****        67.2500  19.2500  29.7500 Du        
   6213 ****        67.2500  19.5000  28.0000 Du        
   6214 ****        67.2500  19.5000  28.2500 Du        
   6215 ****        67.2500  19.5000  28.5000 Du        
   6216 ****        67.2500  19.5000  28.7500 Du        
   6217 ****        67.2500  19.5000  29.0000 Du        
   6218 ****        67.2500  19.5000  29.2500 Du        
   6219 ****        67.2500  19.5000  29.5000 Du        
   6220 ****        67.2500  19.7500  28.2500 Du        
   6221 ****        67.2500  19.7500  28.5000 Du        
   6222 ****        67.2500  19.7500  28.7500 Du        
   6223 ****        67.2500  19.7500  29.0000 Du        
   6224 ****        67.2500  19.7500  29.2500 Du        
   6225 ****        67.2500  20.0000  28.7500 Du        
   6226 ****        67.2500  20.0000  29.0000 Du        
   6227 ****        67.2500  20.0000  29.2500 Du        
   6228 ****        67.5000  15.2500  29.2500 Du        
   6229 ****        67.5000  15.2500  29.5000 Du        
   6230 ****        67.5000  15.2500  29.7500 Du        
   6231 ****        67.5000  15.5000  29.2500 Du        
   6232 ****        67.5000  15.5000  29.5000 Du        
   6233 ****        67.5000  15.5000  29.7500 Du        
   6234 ****        67.5000  15.5000  30.0000 Du        
   6235 ****        67.5000  15.7500  29.0000 Du        
   6236 ****        67.5000  15.7500  29.2500 Du        
   6237 ****        67.5000  15.7500  29.5000 Du        
   6238 ****        67.5000  15.7500  29.7500 Du        
   6239 ****        67.5000  15.7500  30.0000 Du        
   6240 ****        67.5000  15.7500  30.2500 Du        
   6241 ****        67.5000  16.0000  28.0000 Du        
   6242 ****        67.5000  16.0000  28.2500 Du        
   6243 ****        67.5000  16.0000  29.0000 Du        
   6244 ****        67.5000  16.0000  29.2500 Du        
   6245 ****        67.5000  16.0000  29.5000 Du        
   6246 ****        67.5000  16.0000  29.7500 Du        
   6247 ****        67.5000  16.0000  30.0000 Du        
   6248 ****        67.5000  16.0000  30.2500 Du        
   6249 ****        67.5000  16.2500  27.0000 Du        
   6250 ****        67.5000  16.2500  27.2500 Du        
   6251 ****        67.5000  16.2500  27.5000 Du        
   6252 ****        67.5000  16.2500  27.7500 Du        
   6253 ****        67.5000  16.2500  28.0000 Du        
   6254 ****        67.5000  16.2500  28.2500 Du        
   6255 ****        67.5000  16.2500  28.5000 Du        
   6256 ****        67.5000  16.2500  29.0000 Du        
   6257 ****        67.5000  16.2500  29.5000 Du        
   6258 ****        67.5000  16.2500  29.7500 Du        
   6259 ****        67.5000  16.2500  30.0000 Du        
   6260 ****        67.5000  16.2500  30.2500 Du        
   6261 ****        67.5000  16.5000  27.0000 Du        
   6262 ****        67.5000  16.5000  27.2500 Du        
   6263 ****        67.5000  16.5000  27.5000 Du        
   6264 ****        67.5000  16.5000  27.7500 Du        
   6265 ****        67.5000  16.5000  28.0000 Du        
   6266 ****        67.5000  16.5000  28.2500 Du        
   6267 ****        67.5000  16.5000  28.7500 Du        
   6268 ****        67.5000  16.5000  29.2500 Du        
   6269 ****        67.5000  16.7500  26.5000 Du        
   6270 ****        67.5000  16.7500  26.7500 Du        
   6271 ****        67.5000  16.7500  27.0000 Du        
   6272 ****        67.5000  16.7500  27.2500 Du        
   6273 ****        67.5000  16.7500  27.5000 Du        
   6274 ****        67.5000  16.7500  27.7500 Du        
   6275 ****        67.5000  16.7500  28.0000 Du        
   6276 ****        67.5000  16.7500  28.2500 Du        
   6277 ****        67.5000  16.7500  28.5000 Du        
   6278 ****        67.5000  16.7500  28.7500 Du        
   6279 ****        67.5000  16.7500  29.0000 Du        
   6280 ****        67.5000  16.7500  29.2500 Du        
   6281 ****        67.5000  16.7500  29.5000 Du        
   6282 ****        67.5000  16.7500  29.7500 Du        
   6283 ****        67.5000  16.7500  30.0000 Du        
   6284 ****        67.5000  17.0000  26.2500 Du        
   6285 ****        67.5000  17.0000  26.5000 Du        
   6286 ****        67.5000  17.0000  26.7500 Du        
   6287 ****        67.5000  17.0000  27.0000 Du        
   6288 ****        67.5000  17.0000  27.2500 Du        
   6289 ****        67.5000  17.0000  27.5000 Du        
   6290 ****        67.5000  17.0000  27.7500 Du        
   6291 ****        67.5000  17.0000  28.0000 Du        
   6292 ****        67.5000  17.0000  28.2500 Du        
   6293 ****        67.5000  17.0000  28.7500 Du        
   6294 ****        67.5000  17.0000  29.0000 Du        
   6295 ****        67.5000  17.0000  29.2500 Du        
   6296 ****        67.5000  17.0000  29.5000 Du        
   6297 ****        67.5000  17.0000  29.7500 Du        
   6298 ****        67.5000  17.0000  30.0000 Du        
   6299 ****        67.5000  17.2500  26.2500 Du        
   6300 ****        67.5000  17.2500  26.5000 Du        
   6301 ****        67.5000  17.2500  26.7500 Du        
   6302 ****        67.5000  17.2500  27.0000 Du        
   6303 ****        67.5000  17.2500  27.2500 Du        
   6304 ****        67.5000  17.2500  27.5000 Du        
   6305 ****        67.5000  17.2500  27.7500 Du        
   6306 ****        67.5000  17.2500  28.0000 Du        
   6307 ****        67.5000  17.2500  28.2500 Du        
   6308 ****        67.5000  17.2500  28.5000 Du        
   6309 ****        67.5000  17.2500  28.7500 Du        
   6310 ****        67.5000  17.2500  29.0000 Du        
   6311 ****        67.5000  17.2500  29.2500 Du        
   6312 ****        67.5000  17.2500  29.5000 Du        
   6313 ****        67.5000  17.2500  29.7500 Du        
   6314 ****        67.5000  17.5000  26.0000 Du        
   6315 ****        67.5000  17.5000  26.2500 Du        
   6316 ****        67.5000  17.5000  26.5000 Du        
   6317 ****        67.5000  17.5000  26.7500 Du        
   6318 ****        67.5000  17.5000  27.0000 Du        
   6319 ****        67.5000  17.5000  27.2500 Du        
   6320 ****        67.5000  17.5000  27.5000 Du        
   6321 ****        67.5000  17.5000  27.7500 Du        
   6322 ****        67.5000  17.5000  28.0000 Du        
   6323 ****        67.5000  17.5000  28.2500 Du        
   6324 ****        67.5000  17.5000  28.5000 Du        
   6325 ****        67.5000  17.5000  28.7500 Du        
   6326 ****        67.5000  17.5000  29.0000 Du        
   6327 ****        67.5000  17.5000  29.2500 Du        
   6328 ****        67.5000  17.5000  29.5000 Du        
   6329 ****        67.5000  17.5000  29.7500 Du        
   6330 ****        67.5000  17.5000  30.0000 Du        
   6331 ****        67.5000  17.7500  25.7500 Du        
   6332 ****        67.5000  17.7500  26.0000 Du        
   6333 ****        67.5000  17.7500  26.2500 Du        
   6334 ****        67.5000  17.7500  26.5000 Du        
   6335 ****        67.5000  17.7500  26.7500 Du        
   6336 ****        67.5000  17.7500  27.0000 Du        
   6337 ****        67.5000  17.7500  27.2500 Du        
   6338 ****        67.5000  17.7500  27.5000 Du        
   6339 ****        67.5000  17.7500  27.7500 Du        
   6340 ****        67.5000  17.7500  28.0000 Du        
   6341 ****        67.5000  17.7500  28.2500 Du        
   6342 ****        67.5000  17.7500  28.5000 Du        
   6343 ****        67.5000  17.7500  28.7500 Du        
   6344 ****        67.5000  17.7500  29.0000 Du        
   6345 ****        67.5000  17.7500  29.2500 Du        
   6346 ****        67.5000  17.7500  29.5000 Du        
   6347 ****        67.5000  17.7500  29.7500 Du        
   6348 ****        67.5000  17.7500  30.0000 Du        
   6349 ****        67.5000  18.0000  25.7500 Du        
   6350 ****        67.5000  18.0000  26.0000 Du        
   6351 ****        67.5000  18.0000  26.2500 Du        
   6352 ****        67.5000  18.0000  26.5000 Du        
   6353 ****        67.5000  18.0000  26.7500 Du        
   6354 ****        67.5000  18.0000  27.0000 Du        
   6355 ****        67.5000  18.0000  27.2500 Du        
   6356 ****        67.5000  18.0000  27.5000 Du        
   6357 ****        67.5000  18.0000  27.7500 Du        
   6358 ****        67.5000  18.0000  28.0000 Du        
   6359 ****        67.5000  18.0000  28.2500 Du        
   6360 ****        67.5000  18.0000  28.5000 Du        
   6361 ****        67.5000  18.0000  28.7500 Du        
   6362 ****        67.5000  18.0000  29.0000 Du        
   6363 ****        67.5000  18.0000  29.2500 Du        
   6364 ****        67.5000  18.0000  29.5000 Du        
   6365 ****        67.5000  18.0000  29.7500 Du        
   6366 ****        67.5000  18.0000  30.0000 Du        
   6367 ****        67.5000  18.2500  25.7500 Du        
   6368 ****        67.5000  18.2500  26.0000 Du        
   6369 ****        67.5000  18.2500  26.2500 Du        
   6370 ****        67.5000  18.2500  26.5000 Du        
   6371 ****        67.5000  18.2500  26.7500 Du        
   6372 ****        67.5000  18.2500  27.0000 Du        
   6373 ****        67.5000  18.2500  27.2500 Du        
   6374 ****        67.5000  18.2500  27.5000 Du        
   6375 ****        67.5000  18.2500  27.7500 Du        
   6376 ****        67.5000  18.2500  28.0000 Du        
   6377 ****        67.5000  18.2500  28.2500 Du        
   6378 ****        67.5000  18.2500  28.5000 Du        
   6379 ****        67.5000  18.2500  28.7500 Du        
   6380 ****        67.5000  18.2500  29.0000 Du        
   6381 ****        67.5000  18.2500  29.2500 Du        
   6382 ****        67.5000  18.2500  29.5000 Du        
   6383 ****        67.5000  18.2500  29.7500 Du        
   6384 ****        67.5000  18.2500  30.0000 Du        
   6385 ****        67.5000  18.5000  25.7500 Du        
   6386 ****        67.5000  18.5000  26.0000 Du        
   6387 ****        67.5000  18.5000  26.2500 Du        
   6388 ****        67.5000  18.5000  26.5000 Du        
   6389 ****        67.5000  18.5000  26.7500 Du        
   6390 ****        67.5000  18.5000  27.0000 Du        
   6391 ****        67.5000  18.5000  27.2500 Du        
   6392 ****        67.5000  18.5000  27.5000 Du        
   6393 ****        67.5000  18.5000  27.7500 Du        
   6394 ****        67.5000  18.5000  28.0000 Du        
   6395 ****        67.5000  18.5000  28.2500 Du        
   6396 ****        67.5000  18.5000  28.5000 Du        
   6397 ****        67.5000  18.5000  28.7500 Du        
   6398 ****        67.5000  18.5000  29.0000 Du        
   6399 ****        67.5000  18.5000  29.2500 Du        
   6400 ****        67.5000  18.5000  29.5000 Du        
   6401 ****        67.5000  18.5000  29.7500 Du        
   6402 ****        67.5000  18.5000  30.0000 Du        
   6403 ****        67.5000  18.7500  25.7500 Du        
   6404 ****        67.5000  18.7500  26.0000 Du        
   6405 ****        67.5000  18.7500  26.2500 Du        
   6406 ****        67.5000  18.7500  26.5000 Du        
   6407 ****        67.5000  18.7500  26.7500 Du        
   6408 ****        67.5000  18.7500  27.0000 Du        
   6409 ****        67.5000  18.7500  27.2500 Du        
   6410 ****        67.5000  18.7500  27.5000 Du        
   6411 ****        67.5000  18.7500  27.7500 Du        
   6412 ****        67.5000  18.7500  28.0000 Du        
   6413 ****        67.5000  18.7500  28.2500 Du        
   6414 ****        67.5000  18.7500  28.5000 Du        
   6415 ****        67.5000  18.7500  28.7500 Du        
   6416 ****        67.5000  18.7500  29.0000 Du        
   6417 ****        67.5000  18.7500  29.2500 Du        
   6418 ****        67.5000  18.7500  29.5000 Du        
   6419 ****        67.5000  18.7500  29.7500 Du        
   6420 ****        67.5000  18.7500  30.0000 Du        
   6421 ****        67.5000  19.0000  26.0000 Du        
   6422 ****        67.5000  19.0000  26.2500 Du        
   6423 ****        67.5000  19.0000  26.5000 Du        
   6424 ****        67.5000  19.0000  26.7500 Du        
   6425 ****        67.5000  19.0000  27.0000 Du        
   6426 ****        67.5000  19.0000  27.2500 Du        
   6427 ****        67.5000  19.0000  27.5000 Du        
   6428 ****        67.5000  19.0000  27.7500 Du        
   6429 ****        67.5000  19.0000  28.0000 Du        
   6430 ****        67.5000  19.0000  28.2500 Du        
   6431 ****        67.5000  19.0000  28.5000 Du        
   6432 ****        67.5000  19.0000  28.7500 Du        
   6433 ****        67.5000  19.0000  29.0000 Du        
   6434 ****        67.5000  19.0000  29.2500 Du        
   6435 ****        67.5000  19.0000  29.5000 Du        
   6436 ****        67.5000  19.0000  29.7500 Du        
   6437 ****        67.5000  19.0000  30.0000 Du        
   6438 ****        67.5000  19.2500  27.7500 Du        
   6439 ****        67.5000  19.2500  28.0000 Du        
   6440 ****        67.5000  19.2500  28.2500 Du        
   6441 ****        67.5000  19.2500  28.5000 Du        
   6442 ****        67.5000  19.2500  28.7500 Du        
   6443 ****        67.5000  19.2500  29.0000 Du        
   6444 ****        67.5000  19.2500  29.2500 Du        
   6445 ****        67.5000  19.2500  29.5000 Du        
   6446 ****        67.5000  19.2500  29.7500 Du        
   6447 ****        67.5000  19.5000  28.2500 Du        
   6448 ****        67.5000  19.5000  28.5000 Du        
   6449 ****        67.5000  19.5000  28.7500 Du        
   6450 ****        67.5000  19.5000  29.0000 Du        
   6451 ****        67.5000  19.5000  29.2500 Du        
   6452 ****        67.5000  19.5000  29.5000 Du        
   6453 ****        67.5000  19.7500  28.5000 Du        
   6454 ****        67.5000  19.7500  28.7500 Du        
   6455 ****        67.5000  19.7500  29.0000 Du        
   6456 ****        67.5000  19.7500  29.2500 Du        
   6457 ****        67.5000  19.7500  29.5000 Du        
   6458 ****        67.5000  20.0000  28.7500 Du        
   6459 ****        67.5000  20.0000  29.0000 Du        
   6460 ****        67.7500  15.2500  29.2500 Du        
   6461 ****        67.7500  15.2500  29.5000 Du        
   6462 ****        67.7500  15.5000  29.0000 Du        
   6463 ****        67.7500  15.5000  29.2500 Du        
   6464 ****        67.7500  15.5000  29.5000 Du        
   6465 ****        67.7500  15.5000  29.7500 Du        
   6466 ****        67.7500  15.7500  28.7500 Du        
   6467 ****        67.7500  15.7500  29.0000 Du        
   6468 ****        67.7500  15.7500  29.2500 Du        
   6469 ****        67.7500  15.7500  29.5000 Du        
   6470 ****        67.7500  15.7500  29.7500 Du        
   6471 ****        67.7500  15.7500  30.0000 Du        
   6472 ****        67.7500  16.0000  28.0000 Du        
   6473 ****        67.7500  16.0000  28.2500 Du        
   6474 ****        67.7500  16.0000  28.5000 Du        
   6475 ****        67.7500  16.0000  28.7500 Du        
   6476 ****        67.7500  16.0000  29.0000 Du        
   6477 ****        67.7500  16.0000  29.2500 Du        
   6478 ****        67.7500  16.0000  29.5000 Du        
   6479 ****        67.7500  16.0000  29.7500 Du        
   6480 ****        67.7500  16.0000  30.0000 Du        
   6481 ****        67.7500  16.2500  27.2500 Du        
   6482 ****        67.7500  16.2500  27.5000 Du        
   6483 ****        67.7500  16.2500  27.7500 Du        
   6484 ****        67.7500  16.2500  28.0000 Du        
   6485 ****        67.7500  16.2500  28.2500 Du        
   6486 ****        67.7500  16.2500  28.5000 Du        
   6487 ****        67.7500  16.2500  28.7500 Du        
   6488 ****        67.7500  16.2500  29.0000 Du        
   6489 ****        67.7500  16.2500  29.2500 Du        
   6490 ****        67.7500  16.2500  29.5000 Du        
   6491 ****        67.7500  16.2500  29.7500 Du        
   6492 ****        67.7500  16.2500  30.0000 Du        
   6493 ****        67.7500  16.5000  27.0000 Du        
   6494 ****        67.7500  16.5000  27.2500 Du        
   6495 ****        67.7500  16.5000  27.5000 Du        
   6496 ****        67.7500  16.5000  27.7500 Du        
   6497 ****        67.7500  16.5000  28.0000 Du        
   6498 ****        67.7500  16.5000  28.2500 Du        
   6499 ****        67.7500  16.5000  29.0000 Du        
   6500 ****        67.7500  16.5000  29.2500 Du        
   6501 ****        67.7500  16.7500  26.5000 Du        
   6502 ****        67.7500  16.7500  26.7500 Du        
   6503 ****        67.7500  16.7500  27.0000 Du        
   6504 ****        67.7500  16.7500  27.2500 Du        
   6505 ****        67.7500  16.7500  27.5000 Du        
   6506 ****        67.7500  16.7500  27.7500 Du        
   6507 ****        67.7500  16.7500  28.0000 Du        
   6508 ****        67.7500  16.7500  28.2500 Du        
   6509 ****        67.7500  16.7500  28.7500 Du        
   6510 ****        67.7500  16.7500  29.0000 Du        
   6511 ****        67.7500  16.7500  29.2500 Du        
   6512 ****        67.7500  17.0000  26.2500 Du        
   6513 ****        67.7500  17.0000  26.5000 Du        
   6514 ****        67.7500  17.0000  26.7500 Du        
   6515 ****        67.7500  17.0000  27.0000 Du        
   6516 ****        67.7500  17.0000  27.2500 Du        
   6517 ****        67.7500  17.0000  27.5000 Du        
   6518 ****        67.7500  17.0000  27.7500 Du        
   6519 ****        67.7500  17.0000  28.0000 Du        
   6520 ****        67.7500  17.0000  28.2500 Du        
   6521 ****        67.7500  17.0000  28.5000 Du        
   6522 ****        67.7500  17.0000  28.7500 Du        
   6523 ****        67.7500  17.0000  29.0000 Du        
   6524 ****        67.7500  17.0000  29.2500 Du        
   6525 ****        67.7500  17.0000  29.7500 Du        
   6526 ****        67.7500  17.2500  26.0000 Du        
   6527 ****        67.7500  17.2500  26.2500 Du        
   6528 ****        67.7500  17.2500  26.5000 Du        
   6529 ****        67.7500  17.2500  26.7500 Du        
   6530 ****        67.7500  17.2500  27.0000 Du        
   6531 ****        67.7500  17.2500  27.2500 Du        
   6532 ****        67.7500  17.2500  27.5000 Du        
   6533 ****        67.7500  17.2500  27.7500 Du        
   6534 ****        67.7500  17.2500  28.0000 Du        
   6535 ****        67.7500  17.2500  28.2500 Du        
   6536 ****        67.7500  17.2500  28.5000 Du        
   6537 ****        67.7500  17.2500  28.7500 Du        
   6538 ****        67.7500  17.2500  29.0000 Du        
   6539 ****        67.7500  17.2500  29.2500 Du        
   6540 ****        67.7500  17.2500  29.5000 Du        
   6541 ****        67.7500  17.2500  29.7500 Du        
   6542 ****        67.7500  17.5000  26.0000 Du        
   6543 ****        67.7500  17.5000  26.2500 Du        
   6544 ****        67.7500  17.5000  26.5000 Du        
   6545 ****        67.7500  17.5000  26.7500 Du        
   6546 ****        67.7500  17.5000  27.0000 Du        
   6547 ****        67.7500  17.5000  27.2500 Du        
   6548 ****        67.7500  17.5000  27.5000 Du        
   6549 ****        67.7500  17.5000  27.7500 Du        
   6550 ****        67.7500  17.5000  28.0000 Du        
   6551 ****        67.7500  17.5000  28.2500 Du        
   6552 ****        67.7500  17.5000  28.5000 Du        
   6553 ****        67.7500  17.5000  28.7500 Du        
   6554 ****        67.7500  17.5000  29.0000 Du        
   6555 ****        67.7500  17.5000  29.2500 Du        
   6556 ****        67.7500  17.5000  29.5000 Du        
   6557 ****        67.7500  17.5000  29.7500 Du        
   6558 ****        67.7500  17.7500  25.7500 Du        
   6559 ****        67.7500  17.7500  26.0000 Du        
   6560 ****        67.7500  17.7500  26.2500 Du        
   6561 ****        67.7500  17.7500  26.5000 Du        
   6562 ****        67.7500  17.7500  26.7500 Du        
   6563 ****        67.7500  17.7500  27.0000 Du        
   6564 ****        67.7500  17.7500  27.2500 Du        
   6565 ****        67.7500  17.7500  27.5000 Du        
   6566 ****        67.7500  17.7500  27.7500 Du        
   6567 ****        67.7500  17.7500  28.0000 Du        
   6568 ****        67.7500  17.7500  28.2500 Du        
   6569 ****        67.7500  17.7500  28.5000 Du        
   6570 ****        67.7500  17.7500  28.7500 Du        
   6571 ****        67.7500  17.7500  29.0000 Du        
   6572 ****        67.7500  17.7500  29.2500 Du        
   6573 ****        67.7500  17.7500  29.5000 Du        
   6574 ****        67.7500  17.7500  29.7500 Du        
   6575 ****        67.7500  18.0000  25.7500 Du        
   6576 ****        67.7500  18.0000  26.0000 Du        
   6577 ****        67.7500  18.0000  26.2500 Du        
   6578 ****        67.7500  18.0000  26.5000 Du        
   6579 ****        67.7500  18.0000  26.7500 Du        
   6580 ****        67.7500  18.0000  27.0000 Du        
   6581 ****        67.7500  18.0000  27.2500 Du        
   6582 ****        67.7500  18.0000  27.5000 Du        
   6583 ****        67.7500  18.0000  27.7500 Du        
   6584 ****        67.7500  18.0000  28.0000 Du        
   6585 ****        67.7500  18.0000  28.2500 Du        
   6586 ****        67.7500  18.0000  28.5000 Du        
   6587 ****        67.7500  18.0000  28.7500 Du        
   6588 ****        67.7500  18.0000  29.0000 Du        
   6589 ****        67.7500  18.0000  29.2500 Du        
   6590 ****        67.7500  18.0000  29.5000 Du        
   6591 ****        67.7500  18.0000  29.7500 Du        
   6592 ****        67.7500  18.0000  30.0000 Du        
   6593 ****        67.7500  18.2500  25.7500 Du        
   6594 ****        67.7500  18.2500  26.0000 Du        
   6595 ****        67.7500  18.2500  26.2500 Du        
   6596 ****        67.7500  18.2500  26.5000 Du        
   6597 ****        67.7500  18.2500  26.7500 Du        
   6598 ****        67.7500  18.2500  27.0000 Du        
   6599 ****        67.7500  18.2500  27.2500 Du        
   6600 ****        67.7500  18.2500  27.5000 Du        
   6601 ****        67.7500  18.2500  27.7500 Du        
   6602 ****        67.7500  18.2500  28.0000 Du        
   6603 ****        67.7500  18.2500  28.2500 Du        
   6604 ****        67.7500  18.2500  28.5000 Du        
   6605 ****        67.7500  18.2500  28.7500 Du        
   6606 ****        67.7500  18.2500  29.0000 Du        
   6607 ****        67.7500  18.2500  29.2500 Du        
   6608 ****        67.7500  18.2500  29.5000 Du        
   6609 ****        67.7500  18.2500  29.7500 Du        
   6610 ****        67.7500  18.5000  26.0000 Du        
   6611 ****        67.7500  18.5000  26.2500 Du        
   6612 ****        67.7500  18.5000  26.5000 Du        
   6613 ****        67.7500  18.5000  26.7500 Du        
   6614 ****        67.7500  18.5000  27.0000 Du        
   6615 ****        67.7500  18.5000  27.2500 Du        
   6616 ****        67.7500  18.5000  27.5000 Du        
   6617 ****        67.7500  18.5000  27.7500 Du        
   6618 ****        67.7500  18.5000  28.0000 Du        
   6619 ****        67.7500  18.5000  28.2500 Du        
   6620 ****        67.7500  18.5000  28.5000 Du        
   6621 ****        67.7500  18.5000  28.7500 Du        
   6622 ****        67.7500  18.5000  29.0000 Du        
   6623 ****        67.7500  18.5000  29.2500 Du        
   6624 ****        67.7500  18.5000  29.5000 Du        
   6625 ****        67.7500  18.5000  29.7500 Du        
   6626 ****        67.7500  18.5000  30.0000 Du        
   6627 ****        67.7500  18.7500  26.0000 Du        
   6628 ****        67.7500  18.7500  26.2500 Du        
   6629 ****        67.7500  18.7500  26.5000 Du        
   6630 ****        67.7500  18.7500  26.7500 Du        
   6631 ****        67.7500  18.7500  27.0000 Du        
   6632 ****        67.7500  18.7500  27.2500 Du        
   6633 ****        67.7500  18.7500  27.5000 Du        
   6634 ****        67.7500  18.7500  27.7500 Du        
   6635 ****        67.7500  18.7500  28.0000 Du        
   6636 ****        67.7500  18.7500  28.2500 Du        
   6637 ****        67.7500  18.7500  28.5000 Du        
   6638 ****        67.7500  18.7500  28.7500 Du        
   6639 ****        67.7500  18.7500  29.0000 Du        
   6640 ****        67.7500  18.7500  29.2500 Du        
   6641 ****        67.7500  18.7500  29.5000 Du        
   6642 ****        67.7500  18.7500  29.7500 Du        
   6643 ****        67.7500  18.7500  30.0000 Du        
   6644 ****        67.7500  19.0000  26.2500 Du        
   6645 ****        67.7500  19.0000  26.7500 Du        
   6646 ****        67.7500  19.0000  27.0000 Du        
   6647 ****        67.7500  19.0000  27.2500 Du        
   6648 ****        67.7500  19.0000  27.5000 Du        
   6649 ****        67.7500  19.0000  27.7500 Du        
   6650 ****        67.7500  19.0000  28.0000 Du        
   6651 ****        67.7500  19.0000  28.2500 Du        
   6652 ****        67.7500  19.0000  28.5000 Du        
   6653 ****        67.7500  19.0000  28.7500 Du        
   6654 ****        67.7500  19.0000  29.0000 Du        
   6655 ****        67.7500  19.0000  29.2500 Du        
   6656 ****        67.7500  19.0000  29.5000 Du        
   6657 ****        67.7500  19.0000  29.7500 Du        
   6658 ****        67.7500  19.2500  28.0000 Du        
   6659 ****        67.7500  19.2500  28.2500 Du        
   6660 ****        67.7500  19.2500  28.5000 Du        
   6661 ****        67.7500  19.2500  28.7500 Du        
   6662 ****        67.7500  19.2500  29.0000 Du        
   6663 ****        67.7500  19.2500  29.2500 Du        
   6664 ****        67.7500  19.2500  29.5000 Du        
   6665 ****        67.7500  19.2500  29.7500 Du        
   6666 ****        67.7500  19.5000  28.2500 Du        
   6667 ****        67.7500  19.5000  28.5000 Du        
   6668 ****        67.7500  19.5000  28.7500 Du        
   6669 ****        67.7500  19.5000  29.0000 Du        
   6670 ****        67.7500  19.5000  29.2500 Du        
   6671 ****        67.7500  19.5000  29.5000 Du        
   6672 ****        67.7500  19.5000  29.7500 Du        
   6673 ****        67.7500  19.7500  28.5000 Du        
   6674 ****        67.7500  19.7500  28.7500 Du        
   6675 ****        67.7500  19.7500  29.0000 Du        
   6676 ****        67.7500  19.7500  29.2500 Du        
   6677 ****        67.7500  19.7500  29.5000 Du        
   6678 ****        67.7500  20.0000  28.7500 Du        
   6679 ****        67.7500  20.0000  29.0000 Du        
   6680 ****        67.7500  20.0000  29.2500 Du        
   6681 ****        68.0000  15.7500  28.7500 Du        
   6682 ****        68.0000  15.7500  29.0000 Du        
   6683 ****        68.0000  15.7500  29.2500 Du        
   6684 ****        68.0000  15.7500  29.5000 Du        
   6685 ****        68.0000  16.0000  27.7500 Du        
   6686 ****        68.0000  16.0000  28.0000 Du        
   6687 ****        68.0000  16.0000  28.2500 Du        
   6688 ****        68.0000  16.0000  28.5000 Du        
   6689 ****        68.0000  16.0000  28.7500 Du        
   6690 ****        68.0000  16.0000  29.0000 Du        
   6691 ****        68.0000  16.0000  29.2500 Du        
   6692 ****        68.0000  16.0000  29.5000 Du        
   6693 ****        68.0000  16.0000  29.7500 Du        
   6694 ****        68.0000  16.2500  27.2500 Du        
   6695 ****        68.0000  16.2500  27.5000 Du        
   6696 ****        68.0000  16.2500  27.7500 Du        
   6697 ****        68.0000  16.2500  28.0000 Du        
   6698 ****        68.0000  16.2500  28.2500 Du        
   6699 ****        68.0000  16.2500  28.5000 Du        
   6700 ****        68.0000  16.2500  28.7500 Du        
   6701 ****        68.0000  16.2500  29.0000 Du        
   6702 ****        68.0000  16.2500  29.2500 Du        
   6703 ****        68.0000  16.2500  29.5000 Du        
   6704 ****        68.0000  16.2500  29.7500 Du        
   6705 ****        68.0000  16.5000  27.0000 Du        
   6706 ****        68.0000  16.5000  27.2500 Du        
   6707 ****        68.0000  16.5000  27.5000 Du        
   6708 ****        68.0000  16.5000  27.7500 Du        
   6709 ****        68.0000  16.5000  28.0000 Du        
   6710 ****        68.0000  16.5000  28.2500 Du        
   6711 ****        68.0000  16.5000  28.5000 Du        
   6712 ****        68.0000  16.5000  28.7500 Du        
   6713 ****        68.0000  16.5000  29.0000 Du        
   6714 ****        68.0000  16.5000  29.2500 Du        
   6715 ****        68.0000  16.7500  26.7500 Du        
   6716 ****        68.0000  16.7500  27.0000 Du        
   6717 ****        68.0000  16.7500  27.2500 Du        
   6718 ****        68.0000  16.7500  27.5000 Du        
   6719 ****        68.0000  16.7500  27.7500 Du        
   6720 ****        68.0000  16.7500  28.0000 Du        
   6721 ****        68.0000  16.7500  28.2500 Du        
   6722 ****        68.0000  16.7500  28.5000 Du        
   6723 ****        68.0000  16.7500  28.7500 Du        
   6724 ****        68.0000  16.7500  29.0000 Du        
   6725 ****        68.0000  16.7500  29.2500 Du        
   6726 ****        68.0000  17.0000  26.5000 Du        
   6727 ****        68.0000  17.0000  26.7500 Du        
   6728 ****        68.0000  17.0000  27.0000 Du        
   6729 ****        68.0000  17.0000  27.2500 Du        
   6730 ****        68.0000  17.0000  27.5000 Du        
   6731 ****        68.0000  17.0000  27.7500 Du        
   6732 ****        68.0000  17.0000  28.0000 Du        
   6733 ****        68.0000  17.0000  28.2500 Du        
   6734 ****        68.0000  17.0000  28.5000 Du        
   6735 ****        68.0000  17.0000  28.7500 Du        
   6736 ****        68.0000  17.0000  29.0000 Du        
   6737 ****        68.0000  17.0000  29.2500 Du        
   6738 ****        68.0000  17.2500  26.2500 Du        
   6739 ****        68.0000  17.2500  26.5000 Du        
   6740 ****        68.0000  17.2500  26.7500 Du        
   6741 ****        68.0000  17.2500  27.0000 Du        
   6742 ****        68.0000  17.2500  27.2500 Du        
   6743 ****        68.0000  17.2500  27.5000 Du        
   6744 ****        68.0000  17.2500  27.7500 Du        
   6745 ****        68.0000  17.2500  28.0000 Du        
   6746 ****        68.0000  17.2500  28.2500 Du        
   6747 ****        68.0000  17.2500  28.5000 Du        
   6748 ****        68.0000  17.2500  28.7500 Du        
   6749 ****        68.0000  17.2500  29.0000 Du        
   6750 ****        68.0000  17.2500  29.2500 Du        
   6751 ****        68.0000  17.5000  26.0000 Du        
   6752 ****        68.0000  17.5000  26.2500 Du        
   6753 ****        68.0000  17.5000  26.5000 Du        
   6754 ****        68.0000  17.5000  26.7500 Du        
   6755 ****        68.0000  17.5000  27.0000 Du        
   6756 ****        68.0000  17.5000  27.2500 Du        
   6757 ****        68.0000  17.5000  27.5000 Du        
   6758 ****        68.0000  17.5000  27.7500 Du        
   6759 ****        68.0000  17.5000  28.0000 Du        
   6760 ****        68.0000  17.5000  28.2500 Du        
   6761 ****        68.0000  17.5000  28.5000 Du        
   6762 ****        68.0000  17.5000  28.7500 Du        
   6763 ****        68.0000  17.5000  29.0000 Du        
   6764 ****        68.0000  17.5000  29.2500 Du        
   6765 ****        68.0000  17.7500  26.0000 Du        
   6766 ****        68.0000  17.7500  26.2500 Du        
   6767 ****        68.0000  17.7500  26.5000 Du        
   6768 ****        68.0000  17.7500  26.7500 Du        
   6769 ****        68.0000  17.7500  27.0000 Du        
   6770 ****        68.0000  17.7500  27.2500 Du        
   6771 ****        68.0000  17.7500  27.5000 Du        
   6772 ****        68.0000  17.7500  27.7500 Du        
   6773 ****        68.0000  17.7500  28.0000 Du        
   6774 ****        68.0000  17.7500  28.2500 Du        
   6775 ****        68.0000  17.7500  28.5000 Du        
   6776 ****        68.0000  17.7500  28.7500 Du        
   6777 ****        68.0000  17.7500  29.0000 Du        
   6778 ****        68.0000  17.7500  29.2500 Du        
   6779 ****        68.0000  17.7500  29.5000 Du        
   6780 ****        68.0000  18.0000  26.0000 Du        
   6781 ****        68.0000  18.0000  26.2500 Du        
   6782 ****        68.0000  18.0000  26.5000 Du        
   6783 ****        68.0000  18.0000  26.7500 Du        
   6784 ****        68.0000  18.0000  27.0000 Du        
   6785 ****        68.0000  18.0000  27.2500 Du        
   6786 ****        68.0000  18.0000  27.5000 Du        
   6787 ****        68.0000  18.0000  27.7500 Du        
   6788 ****        68.0000  18.0000  28.0000 Du        
   6789 ****        68.0000  18.0000  28.2500 Du        
   6790 ****        68.0000  18.0000  28.5000 Du        
   6791 ****        68.0000  18.0000  28.7500 Du        
   6792 ****        68.0000  18.0000  29.0000 Du        
   6793 ****        68.0000  18.0000  29.2500 Du        
   6794 ****        68.0000  18.0000  29.5000 Du        
   6795 ****        68.0000  18.2500  26.0000 Du        
   6796 ****        68.0000  18.2500  26.2500 Du        
   6797 ****        68.0000  18.2500  26.5000 Du        
   6798 ****        68.0000  18.2500  26.7500 Du        
   6799 ****        68.0000  18.2500  27.0000 Du        
   6800 ****        68.0000  18.2500  27.2500 Du        
   6801 ****        68.0000  18.2500  27.5000 Du        
   6802 ****        68.0000  18.2500  27.7500 Du        
   6803 ****        68.0000  18.2500  28.0000 Du        
   6804 ****        68.0000  18.2500  28.2500 Du        
   6805 ****        68.0000  18.2500  28.5000 Du        
   6806 ****        68.0000  18.2500  28.7500 Du        
   6807 ****        68.0000  18.2500  29.0000 Du        
   6808 ****        68.0000  18.2500  29.2500 Du        
   6809 ****        68.0000  18.2500  29.5000 Du        
   6810 ****        68.0000  18.5000  26.2500 Du        
   6811 ****        68.0000  18.5000  26.5000 Du        
   6812 ****        68.0000  18.5000  26.7500 Du        
   6813 ****        68.0000  18.5000  27.0000 Du        
   6814 ****        68.0000  18.5000  27.2500 Du        
   6815 ****        68.0000  18.5000  27.5000 Du        
   6816 ****        68.0000  18.5000  27.7500 Du        
   6817 ****        68.0000  18.5000  28.0000 Du        
   6818 ****        68.0000  18.5000  28.2500 Du        
   6819 ****        68.0000  18.5000  28.5000 Du        
   6820 ****        68.0000  18.5000  28.7500 Du        
   6821 ****        68.0000  18.5000  29.0000 Du        
   6822 ****        68.0000  18.5000  29.2500 Du        
   6823 ****        68.0000  18.5000  29.5000 Du        
   6824 ****        68.0000  18.7500  26.2500 Du        
   6825 ****        68.0000  18.7500  26.5000 Du        
   6826 ****        68.0000  18.7500  26.7500 Du        
   6827 ****        68.0000  18.7500  27.0000 Du        
   6828 ****        68.0000  18.7500  27.2500 Du        
   6829 ****        68.0000  18.7500  27.5000 Du        
   6830 ****        68.0000  18.7500  27.7500 Du        
   6831 ****        68.0000  18.7500  28.0000 Du        
   6832 ****        68.0000  18.7500  28.2500 Du        
   6833 ****        68.0000  18.7500  28.5000 Du        
   6834 ****        68.0000  18.7500  28.7500 Du        
   6835 ****        68.0000  18.7500  29.0000 Du        
   6836 ****        68.0000  18.7500  29.2500 Du        
   6837 ****        68.0000  18.7500  29.5000 Du        
   6838 ****        68.0000  18.7500  29.7500 Du        
   6839 ****        68.0000  19.0000  27.2500 Du        
   6840 ****        68.0000  19.0000  27.5000 Du        
   6841 ****        68.0000  19.0000  27.7500 Du        
   6842 ****        68.0000  19.0000  28.0000 Du        
   6843 ****        68.0000  19.0000  28.2500 Du        
   6844 ****        68.0000  19.0000  28.5000 Du        
   6845 ****        68.0000  19.0000  28.7500 Du        
   6846 ****        68.0000  19.0000  29.0000 Du        
   6847 ****        68.0000  19.0000  29.2500 Du        
   6848 ****        68.0000  19.0000  29.5000 Du        
   6849 ****        68.0000  19.0000  29.7500 Du        
   6850 ****        68.0000  19.2500  28.0000 Du        
   6851 ****        68.0000  19.2500  28.2500 Du        
   6852 ****        68.0000  19.2500  28.5000 Du        
   6853 ****        68.0000  19.2500  28.7500 Du        
   6854 ****        68.0000  19.2500  29.0000 Du        
   6855 ****        68.0000  19.2500  29.2500 Du        
   6856 ****        68.0000  19.2500  29.5000 Du        
   6857 ****        68.0000  19.2500  29.7500 Du        
   6858 ****        68.0000  19.5000  28.2500 Du        
   6859 ****        68.0000  19.5000  28.5000 Du        
   6860 ****        68.0000  19.5000  28.7500 Du        
   6861 ****        68.0000  19.5000  29.0000 Du        
   6862 ****        68.0000  19.5000  29.2500 Du        
   6863 ****        68.0000  19.5000  29.5000 Du        
   6864 ****        68.0000  19.5000  29.7500 Du        
   6865 ****        68.0000  19.7500  28.5000 Du        
   6866 ****        68.0000  19.7500  28.7500 Du        
   6867 ****        68.0000  19.7500  29.0000 Du        
   6868 ****        68.0000  19.7500  29.2500 Du        
   6869 ****        68.0000  19.7500  29.5000 Du        
   6870 ****        68.0000  20.0000  28.7500 Du        
   6871 ****        68.0000  20.0000  29.0000 Du        
   6872 ****        68.0000  20.0000  29.2500 Du        
   6873 ****        68.2500  15.7500  28.2500 Du        
   6874 ****        68.2500  15.7500  28.7500 Du        
   6875 ****        68.2500  15.7500  29.0000 Du        
   6876 ****        68.2500  16.0000  27.7500 Du        
   6877 ****        68.2500  16.0000  28.0000 Du        
   6878 ****        68.2500  16.0000  28.2500 Du        
   6879 ****        68.2500  16.0000  28.5000 Du        
   6880 ****        68.2500  16.0000  28.7500 Du        
   6881 ****        68.2500  16.0000  29.0000 Du        
   6882 ****        68.2500  16.2500  27.2500 Du        
   6883 ****        68.2500  16.2500  27.5000 Du        
   6884 ****        68.2500  16.2500  27.7500 Du        
   6885 ****        68.2500  16.2500  28.0000 Du        
   6886 ****        68.2500  16.2500  28.2500 Du        
   6887 ****        68.2500  16.2500  28.5000 Du        
   6888 ****        68.2500  16.2500  28.7500 Du        
   6889 ****        68.2500  16.2500  29.0000 Du        
   6890 ****        68.2500  16.2500  29.2500 Du        
   6891 ****        68.2500  16.5000  27.0000 Du        
   6892 ****        68.2500  16.5000  27.2500 Du        
   6893 ****        68.2500  16.5000  27.5000 Du        
   6894 ****        68.2500  16.5000  27.7500 Du        
   6895 ****        68.2500  16.5000  28.0000 Du        
   6896 ****        68.2500  16.5000  28.2500 Du        
   6897 ****        68.2500  16.5000  28.5000 Du        
   6898 ****        68.2500  16.5000  28.7500 Du        
   6899 ****        68.2500  16.5000  29.0000 Du        
   6900 ****        68.2500  16.5000  29.2500 Du        
   6901 ****        68.2500  16.7500  26.7500 Du        
   6902 ****        68.2500  16.7500  27.0000 Du        
   6903 ****        68.2500  16.7500  27.2500 Du        
   6904 ****        68.2500  16.7500  27.5000 Du        
   6905 ****        68.2500  16.7500  27.7500 Du        
   6906 ****        68.2500  16.7500  28.0000 Du        
   6907 ****        68.2500  16.7500  28.2500 Du        
   6908 ****        68.2500  16.7500  28.5000 Du        
   6909 ****        68.2500  16.7500  28.7500 Du        
   6910 ****        68.2500  16.7500  29.0000 Du        
   6911 ****        68.2500  16.7500  29.2500 Du        
   6912 ****        68.2500  17.0000  26.5000 Du        
   6913 ****        68.2500  17.0000  26.7500 Du        
   6914 ****        68.2500  17.0000  27.0000 Du        
   6915 ****        68.2500  17.0000  27.2500 Du        
   6916 ****        68.2500  17.0000  27.5000 Du        
   6917 ****        68.2500  17.0000  27.7500 Du        
   6918 ****        68.2500  17.0000  28.0000 Du        
   6919 ****        68.2500  17.0000  28.2500 Du        
   6920 ****        68.2500  17.0000  28.5000 Du        
   6921 ****        68.2500  17.0000  28.7500 Du        
   6922 ****        68.2500  17.0000  29.0000 Du        
   6923 ****        68.2500  17.0000  29.2500 Du        
   6924 ****        68.2500  17.2500  26.2500 Du        
   6925 ****        68.2500  17.2500  26.5000 Du        
   6926 ****        68.2500  17.2500  26.7500 Du        
   6927 ****        68.2500  17.2500  27.0000 Du        
   6928 ****        68.2500  17.2500  27.2500 Du        
   6929 ****        68.2500  17.2500  27.5000 Du        
   6930 ****        68.2500  17.2500  27.7500 Du        
   6931 ****        68.2500  17.2500  28.0000 Du        
   6932 ****        68.2500  17.2500  28.2500 Du        
   6933 ****        68.2500  17.2500  28.5000 Du        
   6934 ****        68.2500  17.2500  28.7500 Du        
   6935 ****        68.2500  17.2500  29.0000 Du        
   6936 ****        68.2500  17.2500  29.2500 Du        
   6937 ****        68.2500  17.5000  26.2500 Du        
   6938 ****        68.2500  17.5000  26.5000 Du        
   6939 ****        68.2500  17.5000  26.7500 Du        
   6940 ****        68.2500  17.5000  27.0000 Du        
   6941 ****        68.2500  17.5000  27.2500 Du        
   6942 ****        68.2500  17.5000  27.5000 Du        
   6943 ****        68.2500  17.5000  27.7500 Du        
   6944 ****        68.2500  17.5000  28.0000 Du        
   6945 ****        68.2500  17.5000  28.2500 Du        
   6946 ****        68.2500  17.5000  28.5000 Du        
   6947 ****        68.2500  17.5000  28.7500 Du        
   6948 ****        68.2500  17.5000  29.0000 Du        
   6949 ****        68.2500  17.5000  29.2500 Du        
   6950 ****        68.2500  17.7500  26.2500 Du        
   6951 ****        68.2500  17.7500  26.5000 Du        
   6952 ****        68.2500  17.7500  26.7500 Du        
   6953 ****        68.2500  17.7500  27.0000 Du        
   6954 ****        68.2500  17.7500  27.2500 Du        
   6955 ****        68.2500  17.7500  27.5000 Du        
   6956 ****        68.2500  17.7500  27.7500 Du        
   6957 ****        68.2500  17.7500  28.0000 Du        
   6958 ****        68.2500  17.7500  28.2500 Du        
   6959 ****        68.2500  17.7500  28.5000 Du        
   6960 ****        68.2500  17.7500  28.7500 Du        
   6961 ****        68.2500  17.7500  29.0000 Du        
   6962 ****        68.2500  17.7500  29.2500 Du        
   6963 ****        68.2500  18.0000  26.2500 Du        
   6964 ****        68.2500  18.0000  26.5000 Du        
   6965 ****        68.2500  18.0000  26.7500 Du        
   6966 ****        68.2500  18.0000  27.0000 Du        
   6967 ****        68.2500  18.0000  27.2500 Du        
   6968 ****        68.2500  18.0000  27.5000 Du        
   6969 ****        68.2500  18.0000  27.7500 Du        
   6970 ****        68.2500  18.0000  28.0000 Du        
   6971 ****        68.2500  18.0000  28.2500 Du        
   6972 ****        68.2500  18.0000  28.5000 Du        
   6973 ****        68.2500  18.0000  28.7500 Du        
   6974 ****        68.2500  18.0000  29.0000 Du        
   6975 ****        68.2500  18.0000  29.2500 Du        
   6976 ****        68.2500  18.2500  26.2500 Du        
   6977 ****        68.2500  18.2500  26.5000 Du        
   6978 ****        68.2500  18.2500  26.7500 Du        
   6979 ****        68.2500  18.2500  27.0000 Du        
   6980 ****        68.2500  18.2500  27.2500 Du        
   6981 ****        68.2500  18.2500  27.5000 Du        
   6982 ****        68.2500  18.2500  27.7500 Du        
   6983 ****        68.2500  18.2500  28.0000 Du        
   6984 ****        68.2500  18.2500  28.2500 Du        
   6985 ****        68.2500  18.2500  28.5000 Du        
   6986 ****        68.2500  18.2500  28.7500 Du        
   6987 ****        68.2500  18.2500  29.0000 Du        
   6988 ****        68.2500  18.2500  29.2500 Du        
   6989 ****        68.2500  18.5000  26.7500 Du        
   6990 ****        68.2500  18.5000  27.0000 Du        
   6991 ****        68.2500  18.5000  27.2500 Du        
   6992 ****        68.2500  18.5000  27.5000 Du        
   6993 ****        68.2500  18.5000  27.7500 Du        
   6994 ****        68.2500  18.5000  28.0000 Du        
   6995 ****        68.2500  18.5000  28.2500 Du        
   6996 ****        68.2500  18.5000  28.5000 Du        
   6997 ****        68.2500  18.5000  28.7500 Du        
   6998 ****        68.2500  18.5000  29.0000 Du        
   6999 ****        68.2500  18.5000  29.2500 Du        
   7000 ****        68.2500  18.7500  27.0000 Du        
   7001 ****        68.2500  18.7500  27.2500 Du        
   7002 ****        68.2500  18.7500  27.5000 Du        
   7003 ****        68.2500  18.7500  27.7500 Du        
   7004 ****        68.2500  18.7500  28.0000 Du        
   7005 ****        68.2500  18.7500  28.2500 Du        
   7006 ****        68.2500  18.7500  28.5000 Du        
   7007 ****        68.2500  18.7500  28.7500 Du        
   7008 ****        68.2500  18.7500  29.0000 Du        
   7009 ****        68.2500  18.7500  29.2500 Du        
   7010 ****        68.2500  18.7500  29.5000 Du        
   7011 ****        68.2500  19.0000  27.7500 Du        
   7012 ****        68.2500  19.0000  28.0000 Du        
   7013 ****        68.2500  19.0000  28.2500 Du        
   7014 ****        68.2500  19.0000  28.5000 Du        
   7015 ****        68.2500  19.0000  28.7500 Du        
   7016 ****        68.2500  19.0000  29.0000 Du        
   7017 ****        68.2500  19.0000  29.2500 Du        
   7018 ****        68.2500  19.0000  29.5000 Du        
   7019 ****        68.2500  19.2500  28.0000 Du        
   7020 ****        68.2500  19.2500  28.2500 Du        
   7021 ****        68.2500  19.2500  28.5000 Du        
   7022 ****        68.2500  19.2500  28.7500 Du        
   7023 ****        68.2500  19.2500  29.0000 Du        
   7024 ****        68.2500  19.2500  29.2500 Du        
   7025 ****        68.2500  19.2500  29.5000 Du        
   7026 ****        68.2500  19.5000  28.5000 Du        
   7027 ****        68.2500  19.5000  28.7500 Du        
   7028 ****        68.2500  19.5000  29.0000 Du        
   7029 ****        68.2500  19.5000  29.2500 Du        
   7030 ****        68.2500  19.5000  29.5000 Du        
   7031 ****        68.2500  19.7500  28.7500 Du        
   7032 ****        68.2500  19.7500  29.0000 Du        
   7033 ****        68.2500  19.7500  29.2500 Du        
   7034 ****        68.2500  19.7500  29.5000 Du        
   7035 ****        68.2500  20.0000  29.0000 Du        
   7036 ****        68.2500  20.0000  29.2500 Du        
   7037 ****        68.5000  15.5000  28.7500 Du        
   7038 ****        68.5000  15.5000  29.0000 Du        
   7039 ****        68.5000  15.7500  28.0000 Du        
   7040 ****        68.5000  15.7500  28.2500 Du        
   7041 ****        68.5000  15.7500  28.5000 Du        
   7042 ****        68.5000  15.7500  28.7500 Du        
   7043 ****        68.5000  15.7500  29.0000 Du        
   7044 ****        68.5000  16.0000  27.5000 Du        
   7045 ****        68.5000  16.0000  27.7500 Du        
   7046 ****        68.5000  16.0000  28.0000 Du        
   7047 ****        68.5000  16.0000  28.2500 Du        
   7048 ****        68.5000  16.0000  28.5000 Du        
   7049 ****        68.5000  16.0000  28.7500 Du        
   7050 ****        68.5000  16.0000  29.0000 Du        
   7051 ****        68.5000  16.2500  27.2500 Du        
   7052 ****        68.5000  16.2500  27.5000 Du        
   7053 ****        68.5000  16.2500  27.7500 Du        
   7054 ****        68.5000  16.2500  28.0000 Du        
   7055 ****        68.5000  16.2500  28.2500 Du        
   7056 ****        68.5000  16.2500  28.5000 Du        
   7057 ****        68.5000  16.2500  28.7500 Du        
   7058 ****        68.5000  16.2500  29.0000 Du        
   7059 ****        68.5000  16.5000  27.0000 Du        
   7060 ****        68.5000  16.5000  27.2500 Du        
   7061 ****        68.5000  16.5000  27.5000 Du        
   7062 ****        68.5000  16.5000  27.7500 Du        
   7063 ****        68.5000  16.5000  28.0000 Du        
   7064 ****        68.5000  16.5000  28.2500 Du        
   7065 ****        68.5000  16.5000  28.5000 Du        
   7066 ****        68.5000  16.5000  28.7500 Du        
   7067 ****        68.5000  16.7500  26.7500 Du        
   7068 ****        68.5000  16.7500  27.0000 Du        
   7069 ****        68.5000  16.7500  27.2500 Du        
   7070 ****        68.5000  16.7500  27.5000 Du        
   7071 ****        68.5000  16.7500  27.7500 Du        
   7072 ****        68.5000  16.7500  28.0000 Du        
   7073 ****        68.5000  16.7500  28.2500 Du        
   7074 ****        68.5000  16.7500  28.5000 Du        
   7075 ****        68.5000  16.7500  28.7500 Du        
   7076 ****        68.5000  16.7500  29.0000 Du        
   7077 ****        68.5000  17.0000  26.5000 Du        
   7078 ****        68.5000  17.0000  26.7500 Du        
   7079 ****        68.5000  17.0000  27.0000 Du        
   7080 ****        68.5000  17.0000  27.2500 Du        
   7081 ****        68.5000  17.0000  27.5000 Du        
   7082 ****        68.5000  17.0000  27.7500 Du        
   7083 ****        68.5000  17.0000  28.0000 Du        
   7084 ****        68.5000  17.0000  28.2500 Du        
   7085 ****        68.5000  17.0000  28.5000 Du        
   7086 ****        68.5000  17.0000  28.7500 Du        
   7087 ****        68.5000  17.0000  29.0000 Du        
   7088 ****        68.5000  17.2500  26.5000 Du        
   7089 ****        68.5000  17.2500  26.7500 Du        
   7090 ****        68.5000  17.2500  27.0000 Du        
   7091 ****        68.5000  17.2500  27.2500 Du        
   7092 ****        68.5000  17.2500  27.5000 Du        
   7093 ****        68.5000  17.2500  27.7500 Du        
   7094 ****        68.5000  17.2500  28.0000 Du        
   7095 ****        68.5000  17.2500  28.2500 Du        
   7096 ****        68.5000  17.2500  28.5000 Du        
   7097 ****        68.5000  17.2500  28.7500 Du        
   7098 ****        68.5000  17.2500  29.0000 Du        
   7099 ****        68.5000  17.5000  26.2500 Du        
   7100 ****        68.5000  17.5000  26.5000 Du        
   7101 ****        68.5000  17.5000  26.7500 Du        
   7102 ****        68.5000  17.5000  27.0000 Du        
   7103 ****        68.5000  17.5000  27.2500 Du        
   7104 ****        68.5000  17.5000  27.5000 Du        
   7105 ****        68.5000  17.5000  27.7500 Du        
   7106 ****        68.5000  17.5000  28.0000 Du        
   7107 ****        68.5000  17.5000  28.2500 Du        
   7108 ****        68.5000  17.5000  28.5000 Du        
   7109 ****        68.5000  17.5000  28.7500 Du        
   7110 ****        68.5000  17.5000  29.0000 Du        
   7111 ****        68.5000  17.7500  26.5000 Du        
   7112 ****        68.5000  17.7500  26.7500 Du        
   7113 ****        68.5000  17.7500  27.0000 Du        
   7114 ****        68.5000  17.7500  27.2500 Du        
   7115 ****        68.5000  17.7500  27.5000 Du        
   7116 ****        68.5000  17.7500  27.7500 Du        
   7117 ****        68.5000  17.7500  28.0000 Du        
   7118 ****        68.5000  17.7500  28.2500 Du        
   7119 ****        68.5000  17.7500  28.5000 Du        
   7120 ****        68.5000  17.7500  28.7500 Du        
   7121 ****        68.5000  17.7500  29.0000 Du        
   7122 ****        68.5000  18.0000  26.5000 Du        
   7123 ****        68.5000  18.0000  26.7500 Du        
   7124 ****        68.5000  18.0000  27.0000 Du        
   7125 ****        68.5000  18.0000  27.2500 Du        
   7126 ****        68.5000  18.0000  27.5000 Du        
   7127 ****        68.5000  18.0000  27.7500 Du        
   7128 ****        68.5000  18.0000  28.0000 Du        
   7129 ****        68.5000  18.0000  28.2500 Du        
   7130 ****        68.5000  18.0000  28.5000 Du        
   7131 ****        68.5000  18.0000  28.7500 Du        
   7132 ****        68.5000  18.0000  29.0000 Du        
   7133 ****        68.5000  18.2500  26.7500 Du        
   7134 ****        68.5000  18.2500  27.0000 Du        
   7135 ****        68.5000  18.2500  27.2500 Du        
   7136 ****        68.5000  18.2500  27.5000 Du        
   7137 ****        68.5000  18.2500  27.7500 Du        
   7138 ****        68.5000  18.2500  28.0000 Du        
   7139 ****        68.5000  18.2500  28.2500 Du        
   7140 ****        68.5000  18.2500  28.5000 Du        
   7141 ****        68.5000  18.2500  28.7500 Du        
   7142 ****        68.5000  18.2500  29.0000 Du        
   7143 ****        68.5000  18.5000  27.0000 Du        
   7144 ****        68.5000  18.5000  27.2500 Du        
   7145 ****        68.5000  18.5000  27.5000 Du        
   7146 ****        68.5000  18.5000  27.7500 Du        
   7147 ****        68.5000  18.5000  28.0000 Du        
   7148 ****        68.5000  18.5000  28.2500 Du        
   7149 ****        68.5000  18.5000  28.5000 Du        
   7150 ****        68.5000  18.5000  28.7500 Du        
   7151 ****        68.5000  18.5000  29.0000 Du        
   7152 ****        68.5000  18.7500  27.2500 Du        
   7153 ****        68.5000  18.7500  27.5000 Du        
   7154 ****        68.5000  18.7500  27.7500 Du        
   7155 ****        68.5000  18.7500  28.0000 Du        
   7156 ****        68.5000  18.7500  28.2500 Du        
   7157 ****        68.5000  18.7500  28.5000 Du        
   7158 ****        68.5000  18.7500  28.7500 Du        
   7159 ****        68.5000  18.7500  29.0000 Du        
   7160 ****        68.5000  18.7500  29.2500 Du        
   7161 ****        68.5000  19.0000  27.7500 Du        
   7162 ****        68.5000  19.0000  28.0000 Du        
   7163 ****        68.5000  19.0000  28.2500 Du        
   7164 ****        68.5000  19.0000  28.5000 Du        
   7165 ****        68.5000  19.0000  28.7500 Du        
   7166 ****        68.5000  19.0000  29.0000 Du        
   7167 ****        68.5000  19.0000  29.2500 Du        
   7168 ****        68.5000  19.2500  28.0000 Du        
   7169 ****        68.5000  19.2500  28.2500 Du        
   7170 ****        68.5000  19.2500  28.5000 Du        
   7171 ****        68.5000  19.2500  28.7500 Du        
   7172 ****        68.5000  19.2500  29.0000 Du        
   7173 ****        68.5000  19.2500  29.2500 Du        
   7174 ****        68.5000  19.5000  28.5000 Du        
   7175 ****        68.5000  19.5000  28.7500 Du        
   7176 ****        68.5000  19.5000  29.0000 Du        
   7177 ****        68.5000  19.5000  29.2500 Du        
   7178 ****        68.5000  19.7500  28.7500 Du        
   7179 ****        68.5000  19.7500  29.0000 Du        
   7180 ****        68.5000  19.7500  29.2500 Du        
   7181 ****        68.5000  20.0000  29.0000 Du        
   7182 ****        68.5000  20.0000  29.2500 Du        
   7183 ****        68.7500  15.2500  28.7500 Du        
   7184 ****        68.7500  15.5000  28.5000 Du        
   7185 ****        68.7500  15.5000  28.7500 Du        
   7186 ****        68.7500  15.5000  29.0000 Du        
   7187 ****        68.7500  15.7500  27.7500 Du        
   7188 ****        68.7500  15.7500  28.0000 Du        
   7189 ****        68.7500  15.7500  28.2500 Du        
   7190 ****        68.7500  15.7500  28.5000 Du        
   7191 ****        68.7500  15.7500  28.7500 Du        
   7192 ****        68.7500  15.7500  29.0000 Du        
   7193 ****        68.7500  16.0000  27.2500 Du        
   7194 ****        68.7500  16.0000  27.5000 Du        
   7195 ****        68.7500  16.0000  27.7500 Du        
   7196 ****        68.7500  16.0000  28.0000 Du        
   7197 ****        68.7500  16.0000  28.2500 Du        
   7198 ****        68.7500  16.0000  28.5000 Du        
   7199 ****        68.7500  16.0000  28.7500 Du        
   7200 ****        68.7500  16.0000  29.0000 Du        
   7201 ****        68.7500  16.2500  27.0000 Du        
   7202 ****        68.7500  16.2500  27.2500 Du        
   7203 ****        68.7500  16.2500  27.5000 Du        
   7204 ****        68.7500  16.2500  27.7500 Du        
   7205 ****        68.7500  16.2500  28.0000 Du        
   7206 ****        68.7500  16.2500  28.2500 Du        
   7207 ****        68.7500  16.2500  28.5000 Du        
   7208 ****        68.7500  16.2500  28.7500 Du        
   7209 ****        68.7500  16.2500  29.0000 Du        
   7210 ****        68.7500  16.5000  27.0000 Du        
   7211 ****        68.7500  16.5000  27.2500 Du        
   7212 ****        68.7500  16.5000  27.5000 Du        
   7213 ****        68.7500  16.5000  27.7500 Du        
   7214 ****        68.7500  16.5000  28.0000 Du        
   7215 ****        68.7500  16.5000  28.2500 Du        
   7216 ****        68.7500  16.5000  28.5000 Du        
   7217 ****        68.7500  16.5000  28.7500 Du        
   7218 ****        68.7500  16.7500  26.7500 Du        
   7219 ****        68.7500  16.7500  27.0000 Du        
   7220 ****        68.7500  16.7500  27.2500 Du        
   7221 ****        68.7500  16.7500  27.5000 Du        
   7222 ****        68.7500  16.7500  27.7500 Du        
   7223 ****        68.7500  16.7500  28.0000 Du        
   7224 ****        68.7500  16.7500  28.2500 Du        
   7225 ****        68.7500  16.7500  28.5000 Du        
   7226 ****        68.7500  16.7500  28.7500 Du        
   7227 ****        68.7500  16.7500  29.0000 Du        
   7228 ****        68.7500  17.0000  26.7500 Du        
   7229 ****        68.7500  17.0000  27.0000 Du        
   7230 ****        68.7500  17.0000  27.2500 Du        
   7231 ****        68.7500  17.0000  27.5000 Du        
   7232 ****        68.7500  17.0000  27.7500 Du        
   7233 ****        68.7500  17.0000  28.0000 Du        
   7234 ****        68.7500  17.0000  28.2500 Du        
   7235 ****        68.7500  17.0000  28.5000 Du        
   7236 ****        68.7500  17.0000  28.7500 Du        
   7237 ****        68.7500  17.0000  29.0000 Du        
   7238 ****        68.7500  17.2500  26.5000 Du        
   7239 ****        68.7500  17.2500  26.7500 Du        
   7240 ****        68.7500  17.2500  27.0000 Du        
   7241 ****        68.7500  17.2500  27.2500 Du        
   7242 ****        68.7500  17.2500  27.5000 Du        
   7243 ****        68.7500  17.2500  27.7500 Du        
   7244 ****        68.7500  17.2500  28.0000 Du        
   7245 ****        68.7500  17.2500  28.2500 Du        
   7246 ****        68.7500  17.2500  28.5000 Du        
   7247 ****        68.7500  17.2500  28.7500 Du        
   7248 ****        68.7500  17.2500  29.0000 Du        
   7249 ****        68.7500  17.5000  26.7500 Du        
   7250 ****        68.7500  17.5000  27.0000 Du        
   7251 ****        68.7500  17.5000  27.2500 Du        
   7252 ****        68.7500  17.5000  27.5000 Du        
   7253 ****        68.7500  17.5000  27.7500 Du        
   7254 ****        68.7500  17.5000  28.0000 Du        
   7255 ****        68.7500  17.5000  28.2500 Du        
   7256 ****        68.7500  17.5000  28.5000 Du        
   7257 ****        68.7500  17.5000  28.7500 Du        
   7258 ****        68.7500  17.5000  29.0000 Du        
   7259 ****        68.7500  17.7500  26.7500 Du        
   7260 ****        68.7500  17.7500  27.0000 Du        
   7261 ****        68.7500  17.7500  27.2500 Du        
   7262 ****        68.7500  17.7500  27.5000 Du        
   7263 ****        68.7500  17.7500  27.7500 Du        
   7264 ****        68.7500  17.7500  28.0000 Du        
   7265 ****        68.7500  17.7500  28.2500 Du        
   7266 ****        68.7500  17.7500  28.5000 Du        
   7267 ****        68.7500  17.7500  28.7500 Du        
   7268 ****        68.7500  17.7500  29.0000 Du        
   7269 ****        68.7500  18.0000  26.7500 Du        
   7270 ****        68.7500  18.0000  27.0000 Du        
   7271 ****        68.7500  18.0000  27.2500 Du        
   7272 ****        68.7500  18.0000  27.5000 Du        
   7273 ****        68.7500  18.0000  27.7500 Du        
   7274 ****        68.7500  18.0000  28.0000 Du        
   7275 ****        68.7500  18.0000  28.2500 Du        
   7276 ****        68.7500  18.0000  28.5000 Du        
   7277 ****        68.7500  18.0000  28.7500 Du        
   7278 ****        68.7500  18.0000  29.0000 Du        
   7279 ****        68.7500  18.2500  27.0000 Du        
   7280 ****        68.7500  18.2500  27.2500 Du        
   7281 ****        68.7500  18.2500  27.5000 Du        
   7282 ****        68.7500  18.2500  27.7500 Du        
   7283 ****        68.7500  18.2500  28.0000 Du        
   7284 ****        68.7500  18.2500  28.2500 Du        
   7285 ****        68.7500  18.2500  28.5000 Du        
   7286 ****        68.7500  18.2500  28.7500 Du        
   7287 ****        68.7500  18.2500  29.0000 Du        
   7288 ****        68.7500  18.5000  27.2500 Du        
   7289 ****        68.7500  18.5000  27.5000 Du        
   7290 ****        68.7500  18.5000  27.7500 Du        
   7291 ****        68.7500  18.5000  28.0000 Du        
   7292 ****        68.7500  18.5000  28.2500 Du        
   7293 ****        68.7500  18.5000  28.5000 Du        
   7294 ****        68.7500  18.5000  28.7500 Du        
   7295 ****        68.7500  18.5000  29.0000 Du        
   7296 ****        68.7500  18.7500  27.5000 Du        
   7297 ****        68.7500  18.7500  27.7500 Du        
   7298 ****        68.7500  18.7500  28.0000 Du        
   7299 ****        68.7500  18.7500  28.2500 Du        
   7300 ****        68.7500  18.7500  28.5000 Du        
   7301 ****        68.7500  18.7500  28.7500 Du        
   7302 ****        68.7500  18.7500  29.0000 Du        
   7303 ****        68.7500  19.0000  27.7500 Du        
   7304 ****        68.7500  19.0000  28.0000 Du        
   7305 ****        68.7500  19.0000  28.2500 Du        
   7306 ****        68.7500  19.0000  28.5000 Du        
   7307 ****        68.7500  19.0000  28.7500 Du        
   7308 ****        68.7500  19.0000  29.0000 Du        
   7309 ****        68.7500  19.2500  28.2500 Du        
   7310 ****        68.7500  19.2500  28.5000 Du        
   7311 ****        68.7500  19.2500  28.7500 Du        
   7312 ****        68.7500  19.2500  29.0000 Du        
   7313 ****        68.7500  19.5000  28.5000 Du        
   7314 ****        68.7500  19.5000  28.7500 Du        
   7315 ****        68.7500  19.5000  29.0000 Du        
   7316 ****        68.7500  19.5000  29.2500 Du        
   7317 ****        68.7500  19.7500  28.7500 Du        
   7318 ****        68.7500  19.7500  29.0000 Du        
   7319 ****        68.7500  19.7500  29.2500 Du        
   7320 ****        68.7500  20.0000  29.0000 Du        
   7321 ****        68.7500  20.0000  29.2500 Du        
   7322 ****        69.0000  15.2500  28.7500 Du        
   7323 ****        69.0000  15.5000  28.0000 Du        
   7324 ****        69.0000  15.5000  28.2500 Du        
   7325 ****        69.0000  15.5000  28.5000 Du        
   7326 ****        69.0000  15.5000  28.7500 Du        
   7327 ****        69.0000  15.5000  29.0000 Du        
   7328 ****        69.0000  15.7500  27.5000 Du        
   7329 ****        69.0000  15.7500  27.7500 Du        
   7330 ****        69.0000  15.7500  28.0000 Du        
   7331 ****        69.0000  15.7500  28.2500 Du        
   7332 ****        69.0000  15.7500  28.5000 Du        
   7333 ****        69.0000  15.7500  28.7500 Du        
   7334 ****        69.0000  15.7500  29.0000 Du        
   7335 ****        69.0000  16.0000  27.2500 Du        
   7336 ****        69.0000  16.0000  27.5000 Du        
   7337 ****        69.0000  16.0000  27.7500 Du        
   7338 ****        69.0000  16.0000  28.0000 Du        
   7339 ****        69.0000  16.0000  28.2500 Du        
   7340 ****        69.0000  16.0000  28.5000 Du        
   7341 ****        69.0000  16.0000  28.7500 Du        
   7342 ****        69.0000  16.0000  29.0000 Du        
   7343 ****        69.0000  16.2500  27.0000 Du        
   7344 ****        69.0000  16.2500  27.2500 Du        
   7345 ****        69.0000  16.2500  27.5000 Du        
   7346 ****        69.0000  16.2500  27.7500 Du        
   7347 ****        69.0000  16.2500  28.0000 Du        
   7348 ****        69.0000  16.2500  28.2500 Du        
   7349 ****        69.0000  16.2500  28.5000 Du        
   7350 ****        69.0000  16.2500  28.7500 Du        
   7351 ****        69.0000  16.5000  27.0000 Du        
   7352 ****        69.0000  16.5000  27.2500 Du        
   7353 ****        69.0000  16.5000  27.5000 Du        
   7354 ****        69.0000  16.5000  27.7500 Du        
   7355 ****        69.0000  16.5000  28.0000 Du        
   7356 ****        69.0000  16.5000  28.2500 Du        
   7357 ****        69.0000  16.5000  28.5000 Du        
   7358 ****        69.0000  16.5000  28.7500 Du        
   7359 ****        69.0000  16.7500  26.7500 Du        
   7360 ****        69.0000  16.7500  27.0000 Du        
   7361 ****        69.0000  16.7500  27.2500 Du        
   7362 ****        69.0000  16.7500  27.5000 Du        
   7363 ****        69.0000  16.7500  27.7500 Du        
   7364 ****        69.0000  16.7500  28.0000 Du        
   7365 ****        69.0000  16.7500  28.2500 Du        
   7366 ****        69.0000  16.7500  28.5000 Du        
   7367 ****        69.0000  16.7500  28.7500 Du        
   7368 ****        69.0000  17.0000  26.7500 Du        
   7369 ****        69.0000  17.0000  27.0000 Du        
   7370 ****        69.0000  17.0000  27.2500 Du        
   7371 ****        69.0000  17.0000  27.5000 Du        
   7372 ****        69.0000  17.0000  27.7500 Du        
   7373 ****        69.0000  17.0000  28.0000 Du        
   7374 ****        69.0000  17.0000  28.2500 Du        
   7375 ****        69.0000  17.0000  28.5000 Du        
   7376 ****        69.0000  17.0000  28.7500 Du        
   7377 ****        69.0000  17.0000  29.0000 Du        
   7378 ****        69.0000  17.2500  26.7500 Du        
   7379 ****        69.0000  17.2500  27.0000 Du        
   7380 ****        69.0000  17.2500  27.2500 Du        
   7381 ****        69.0000  17.2500  27.5000 Du        
   7382 ****        69.0000  17.2500  27.7500 Du        
   7383 ****        69.0000  17.2500  28.0000 Du        
   7384 ****        69.0000  17.2500  28.2500 Du        
   7385 ****        69.0000  17.2500  28.5000 Du        
   7386 ****        69.0000  17.2500  28.7500 Du        
   7387 ****        69.0000  17.2500  29.0000 Du        
   7388 ****        69.0000  17.5000  26.7500 Du        
   7389 ****        69.0000  17.5000  27.0000 Du        
   7390 ****        69.0000  17.5000  27.2500 Du        
   7391 ****        69.0000  17.5000  27.5000 Du        
   7392 ****        69.0000  17.5000  27.7500 Du        
   7393 ****        69.0000  17.5000  28.0000 Du        
   7394 ****        69.0000  17.5000  28.2500 Du        
   7395 ****        69.0000  17.5000  28.5000 Du        
   7396 ****        69.0000  17.5000  28.7500 Du        
   7397 ****        69.0000  17.5000  29.0000 Du        
   7398 ****        69.0000  17.7500  27.0000 Du        
   7399 ****        69.0000  17.7500  27.2500 Du        
   7400 ****        69.0000  17.7500  27.5000 Du        
   7401 ****        69.0000  17.7500  27.7500 Du        
   7402 ****        69.0000  17.7500  28.0000 Du        
   7403 ****        69.0000  17.7500  28.2500 Du        
   7404 ****        69.0000  17.7500  28.5000 Du        
   7405 ****        69.0000  17.7500  28.7500 Du        
   7406 ****        69.0000  17.7500  29.0000 Du        
   7407 ****        69.0000  18.0000  27.0000 Du        
   7408 ****        69.0000  18.0000  27.2500 Du        
   7409 ****        69.0000  18.0000  27.5000 Du        
   7410 ****        69.0000  18.0000  27.7500 Du        
   7411 ****        69.0000  18.0000  28.0000 Du        
   7412 ****        69.0000  18.0000  28.2500 Du        
   7413 ****        69.0000  18.0000  28.5000 Du        
   7414 ****        69.0000  18.0000  28.7500 Du        
   7415 ****        69.0000  18.0000  29.0000 Du        
   7416 ****        69.0000  18.2500  27.2500 Du        
   7417 ****        69.0000  18.2500  27.5000 Du        
   7418 ****        69.0000  18.2500  27.7500 Du        
   7419 ****        69.0000  18.2500  28.0000 Du        
   7420 ****        69.0000  18.2500  28.2500 Du        
   7421 ****        69.0000  18.2500  28.5000 Du        
   7422 ****        69.0000  18.2500  28.7500 Du        
   7423 ****        69.0000  18.2500  29.0000 Du        
   7424 ****        69.0000  18.5000  27.5000 Du        
   7425 ****        69.0000  18.5000  27.7500 Du        
   7426 ****        69.0000  18.5000  28.0000 Du        
   7427 ****        69.0000  18.5000  28.2500 Du        
   7428 ****        69.0000  18.5000  28.5000 Du        
   7429 ****        69.0000  18.5000  28.7500 Du        
   7430 ****        69.0000  18.5000  29.0000 Du        
   7431 ****        69.0000  18.7500  27.7500 Du        
   7432 ****        69.0000  18.7500  28.0000 Du        
   7433 ****        69.0000  18.7500  28.2500 Du        
   7434 ****        69.0000  18.7500  28.5000 Du        
   7435 ****        69.0000  18.7500  28.7500 Du        
   7436 ****        69.0000  18.7500  29.0000 Du        
   7437 ****        69.0000  19.0000  28.0000 Du        
   7438 ****        69.0000  19.0000  28.2500 Du        
   7439 ****        69.0000  19.0000  28.5000 Du        
   7440 ****        69.0000  19.0000  28.7500 Du        
   7441 ****        69.0000  19.0000  29.0000 Du        
   7442 ****        69.0000  19.2500  28.2500 Du        
   7443 ****        69.0000  19.2500  28.5000 Du        
   7444 ****        69.0000  19.2500  28.7500 Du        
   7445 ****        69.0000  19.2500  29.0000 Du        
   7446 ****        69.0000  19.5000  28.5000 Du        
   7447 ****        69.0000  19.5000  28.7500 Du        
   7448 ****        69.0000  19.5000  29.0000 Du        
   7449 ****        69.0000  19.7500  28.7500 Du        
   7450 ****        69.0000  19.7500  29.0000 Du        
   7451 ****        69.2500  15.2500  28.0000 Du        
   7452 ****        69.2500  15.2500  28.2500 Du        
   7453 ****        69.2500  15.2500  28.5000 Du        
   7454 ****        69.2500  15.2500  28.7500 Du        
   7455 ****        69.2500  15.5000  27.7500 Du        
   7456 ****        69.2500  15.5000  28.0000 Du        
   7457 ****        69.2500  15.5000  28.2500 Du        
   7458 ****        69.2500  15.5000  28.5000 Du        
   7459 ****        69.2500  15.5000  28.7500 Du        
   7460 ****        69.2500  15.7500  27.2500 Du        
   7461 ****        69.2500  15.7500  27.5000 Du        
   7462 ****        69.2500  15.7500  27.7500 Du        
   7463 ****        69.2500  15.7500  28.0000 Du        
   7464 ****        69.2500  15.7500  28.2500 Du        
   7465 ****        69.2500  15.7500  28.5000 Du        
   7466 ****        69.2500  15.7500  28.7500 Du        
   7467 ****        69.2500  16.0000  27.0000 Du        
   7468 ****        69.2500  16.0000  27.2500 Du        
   7469 ****        69.2500  16.0000  27.5000 Du        
   7470 ****        69.2500  16.0000  27.7500 Du        
   7471 ****        69.2500  16.0000  28.0000 Du        
   7472 ****        69.2500  16.0000  28.2500 Du        
   7473 ****        69.2500  16.0000  28.5000 Du        
   7474 ****        69.2500  16.0000  28.7500 Du        
   7475 ****        69.2500  16.2500  27.0000 Du        
   7476 ****        69.2500  16.2500  27.2500 Du        
   7477 ****        69.2500  16.2500  27.5000 Du        
   7478 ****        69.2500  16.2500  27.7500 Du        
   7479 ****        69.2500  16.2500  28.0000 Du        
   7480 ****        69.2500  16.2500  28.2500 Du        
   7481 ****        69.2500  16.2500  28.5000 Du        
   7482 ****        69.2500  16.2500  28.7500 Du        
   7483 ****        69.2500  16.5000  27.0000 Du        
   7484 ****        69.2500  16.5000  27.2500 Du        
   7485 ****        69.2500  16.5000  27.5000 Du        
   7486 ****        69.2500  16.5000  27.7500 Du        
   7487 ****        69.2500  16.5000  28.0000 Du        
   7488 ****        69.2500  16.5000  28.2500 Du        
   7489 ****        69.2500  16.5000  28.5000 Du        
   7490 ****        69.2500  16.5000  28.7500 Du        
   7491 ****        69.2500  16.7500  26.7500 Du        
   7492 ****        69.2500  16.7500  27.0000 Du        
   7493 ****        69.2500  16.7500  27.2500 Du        
   7494 ****        69.2500  16.7500  27.5000 Du        
   7495 ****        69.2500  16.7500  27.7500 Du        
   7496 ****        69.2500  16.7500  28.0000 Du        
   7497 ****        69.2500  16.7500  28.2500 Du        
   7498 ****        69.2500  16.7500  28.5000 Du        
   7499 ****        69.2500  16.7500  28.7500 Du        
   7500 ****        69.2500  17.0000  26.7500 Du        
   7501 ****        69.2500  17.0000  27.0000 Du        
   7502 ****        69.2500  17.0000  27.2500 Du        
   7503 ****        69.2500  17.0000  27.5000 Du        
   7504 ****        69.2500  17.0000  27.7500 Du        
   7505 ****        69.2500  17.0000  28.0000 Du        
   7506 ****        69.2500  17.0000  28.2500 Du        
   7507 ****        69.2500  17.0000  28.5000 Du        
   7508 ****        69.2500  17.0000  28.7500 Du        
   7509 ****        69.2500  17.2500  27.0000 Du        
   7510 ****        69.2500  17.2500  27.2500 Du        
   7511 ****        69.2500  17.2500  27.5000 Du        
   7512 ****        69.2500  17.2500  27.7500 Du        
   7513 ****        69.2500  17.2500  28.0000 Du        
   7514 ****        69.2500  17.2500  28.2500 Du        
   7515 ****        69.2500  17.2500  28.5000 Du        
   7516 ****        69.2500  17.2500  28.7500 Du        
   7517 ****        69.2500  17.5000  27.0000 Du        
   7518 ****        69.2500  17.5000  27.2500 Du        
   7519 ****        69.2500  17.5000  27.5000 Du        
   7520 ****        69.2500  17.5000  27.7500 Du        
   7521 ****        69.2500  17.5000  28.0000 Du        
   7522 ****        69.2500  17.5000  28.2500 Du        
   7523 ****        69.2500  17.5000  28.5000 Du        
   7524 ****        69.2500  17.5000  28.7500 Du        
   7525 ****        69.2500  17.7500  27.0000 Du        
   7526 ****        69.2500  17.7500  27.2500 Du        
   7527 ****        69.2500  17.7500  27.5000 Du        
   7528 ****        69.2500  17.7500  27.7500 Du        
   7529 ****        69.2500  17.7500  28.0000 Du        
   7530 ****        69.2500  17.7500  28.2500 Du        
   7531 ****        69.2500  17.7500  28.5000 Du        
   7532 ****        69.2500  17.7500  28.7500 Du        
   7533 ****        69.2500  18.0000  27.2500 Du        
   7534 ****        69.2500  18.0000  27.5000 Du        
   7535 ****        69.2500  18.0000  27.7500 Du        
   7536 ****        69.2500  18.0000  28.0000 Du        
   7537 ****        69.2500  18.0000  28.2500 Du        
   7538 ****        69.2500  18.0000  28.5000 Du        
   7539 ****        69.2500  18.0000  28.7500 Du        
   7540 ****        69.2500  18.2500  27.5000 Du        
   7541 ****        69.2500  18.2500  27.7500 Du        
   7542 ****        69.2500  18.2500  28.0000 Du        
   7543 ****        69.2500  18.2500  28.2500 Du        
   7544 ****        69.2500  18.2500  28.5000 Du        
   7545 ****        69.2500  18.2500  28.7500 Du        
   7546 ****        69.2500  18.5000  27.7500 Du        
   7547 ****        69.2500  18.5000  28.0000 Du        
   7548 ****        69.2500  18.5000  28.2500 Du        
   7549 ****        69.2500  18.5000  28.5000 Du        
   7550 ****        69.2500  18.5000  28.7500 Du        
   7551 ****        69.2500  18.7500  27.7500 Du        
   7552 ****        69.2500  18.7500  28.0000 Du        
   7553 ****        69.2500  18.7500  28.2500 Du        
   7554 ****        69.2500  18.7500  28.5000 Du        
   7555 ****        69.2500  18.7500  28.7500 Du        
   7556 ****        69.2500  19.0000  28.0000 Du        
   7557 ****        69.2500  19.0000  28.2500 Du        
   7558 ****        69.2500  19.0000  28.5000 Du        
   7559 ****        69.2500  19.0000  28.7500 Du        
   7560 ****        69.2500  19.2500  28.2500 Du        
   7561 ****        69.2500  19.2500  28.5000 Du        
   7562 ****        69.2500  19.2500  28.7500 Du        
   7563 ****        69.2500  19.2500  29.0000 Du        
   7564 ****        69.2500  19.5000  28.7500 Du        
   7565 ****        69.2500  19.5000  29.0000 Du        
   7566 ****        69.5000  15.0000  28.2500 Du        
   7567 ****        69.5000  15.0000  28.5000 Du        
   7568 ****        69.5000  15.0000  28.7500 Du        
   7569 ****        69.5000  15.2500  27.7500 Du        
   7570 ****        69.5000  15.2500  28.0000 Du        
   7571 ****        69.5000  15.2500  28.2500 Du        
   7572 ****        69.5000  15.2500  28.5000 Du        
   7573 ****        69.5000  15.2500  28.7500 Du        
   7574 ****        69.5000  15.5000  27.5000 Du        
   7575 ****        69.5000  15.5000  27.7500 Du        
   7576 ****        69.5000  15.5000  28.0000 Du        
   7577 ****        69.5000  15.5000  28.2500 Du        
   7578 ****        69.5000  15.5000  28.5000 Du        
   7579 ****        69.5000  15.5000  28.7500 Du        
   7580 ****        69.5000  15.7500  27.2500 Du        
   7581 ****        69.5000  15.7500  27.5000 Du        
   7582 ****        69.5000  15.7500  27.7500 Du        
   7583 ****        69.5000  15.7500  28.0000 Du        
   7584 ****        69.5000  15.7500  28.2500 Du        
   7585 ****        69.5000  15.7500  28.5000 Du        
   7586 ****        69.5000  15.7500  28.7500 Du        
   7587 ****        69.5000  16.0000  27.0000 Du        
   7588 ****        69.5000  16.0000  27.2500 Du        
   7589 ****        69.5000  16.0000  27.5000 Du        
   7590 ****        69.5000  16.0000  27.7500 Du        
   7591 ****        69.5000  16.0000  28.0000 Du        
   7592 ****        69.5000  16.0000  28.2500 Du        
   7593 ****        69.5000  16.0000  28.5000 Du        
   7594 ****        69.5000  16.0000  28.7500 Du        
   7595 ****        69.5000  16.2500  27.0000 Du        
   7596 ****        69.5000  16.2500  27.2500 Du        
   7597 ****        69.5000  16.2500  27.5000 Du        
   7598 ****        69.5000  16.2500  27.7500 Du        
   7599 ****        69.5000  16.2500  28.0000 Du        
   7600 ****        69.5000  16.2500  28.2500 Du        
   7601 ****        69.5000  16.2500  28.5000 Du        
   7602 ****        69.5000  16.2500  28.7500 Du        
   7603 ****        69.5000  16.5000  27.0000 Du        
   7604 ****        69.5000  16.5000  27.2500 Du        
   7605 ****        69.5000  16.5000  27.5000 Du        
   7606 ****        69.5000  16.5000  27.7500 Du        
   7607 ****        69.5000  16.5000  28.0000 Du        
   7608 ****        69.5000  16.5000  28.2500 Du        
   7609 ****        69.5000  16.5000  28.5000 Du        
   7610 ****        69.5000  16.5000  28.7500 Du        
   7611 ****        69.5000  16.7500  27.0000 Du        
   7612 ****        69.5000  16.7500  27.2500 Du        
   7613 ****        69.5000  16.7500  27.5000 Du        
   7614 ****        69.5000  16.7500  27.7500 Du        
   7615 ****        69.5000  16.7500  28.0000 Du        
   7616 ****        69.5000  16.7500  28.2500 Du        
   7617 ****        69.5000  16.7500  28.5000 Du        
   7618 ****        69.5000  16.7500  28.7500 Du        
   7619 ****        69.5000  17.0000  27.0000 Du        
   7620 ****        69.5000  17.0000  27.2500 Du        
   7621 ****        69.5000  17.0000  27.5000 Du        
   7622 ****        69.5000  17.0000  27.7500 Du        
   7623 ****        69.5000  17.0000  28.0000 Du        
   7624 ****        69.5000  17.0000  28.2500 Du        
   7625 ****        69.5000  17.0000  28.5000 Du        
   7626 ****        69.5000  17.0000  28.7500 Du        
   7627 ****        69.5000  17.2500  27.0000 Du        
   7628 ****        69.5000  17.2500  27.2500 Du        
   7629 ****        69.5000  17.2500  27.5000 Du        
   7630 ****        69.5000  17.2500  27.7500 Du        
   7631 ****        69.5000  17.2500  28.0000 Du        
   7632 ****        69.5000  17.2500  28.2500 Du        
   7633 ****        69.5000  17.2500  28.5000 Du        
   7634 ****        69.5000  17.2500  28.7500 Du        
   7635 ****        69.5000  17.5000  27.0000 Du        
   7636 ****        69.5000  17.5000  27.2500 Du        
   7637 ****        69.5000  17.5000  27.5000 Du        
   7638 ****        69.5000  17.5000  27.7500 Du        
   7639 ****        69.5000  17.5000  28.0000 Du        
   7640 ****        69.5000  17.5000  28.2500 Du        
   7641 ****        69.5000  17.5000  28.5000 Du        
   7642 ****        69.5000  17.5000  28.7500 Du        
   7643 ****        69.5000  17.7500  27.2500 Du        
   7644 ****        69.5000  17.7500  27.5000 Du        
   7645 ****        69.5000  17.7500  27.7500 Du        
   7646 ****        69.5000  17.7500  28.0000 Du        
   7647 ****        69.5000  17.7500  28.2500 Du        
   7648 ****        69.5000  17.7500  28.5000 Du        
   7649 ****        69.5000  17.7500  28.7500 Du        
   7650 ****        69.5000  18.0000  27.5000 Du        
   7651 ****        69.5000  18.0000  27.7500 Du        
   7652 ****        69.5000  18.0000  28.0000 Du        
   7653 ****        69.5000  18.0000  28.2500 Du        
   7654 ****        69.5000  18.0000  28.5000 Du        
   7655 ****        69.5000  18.0000  28.7500 Du        
   7656 ****        69.5000  18.2500  27.5000 Du        
   7657 ****        69.5000  18.2500  27.7500 Du        
   7658 ****        69.5000  18.2500  28.0000 Du        
   7659 ****        69.5000  18.2500  28.2500 Du        
   7660 ****        69.5000  18.2500  28.5000 Du        
   7661 ****        69.5000  18.2500  28.7500 Du        
   7662 ****        69.5000  18.5000  27.7500 Du        
   7663 ****        69.5000  18.5000  28.0000 Du        
   7664 ****        69.5000  18.5000  28.2500 Du        
   7665 ****        69.5000  18.5000  28.5000 Du        
   7666 ****        69.5000  18.5000  28.7500 Du        
   7667 ****        69.5000  18.7500  28.0000 Du        
   7668 ****        69.5000  18.7500  28.2500 Du        
   7669 ****        69.5000  18.7500  28.5000 Du        
   7670 ****        69.5000  18.7500  28.7500 Du        
   7671 ****        69.5000  19.0000  28.2500 Du        
   7672 ****        69.5000  19.0000  28.5000 Du        
   7673 ****        69.5000  19.0000  28.7500 Du        
   7674 ****        69.5000  19.2500  28.5000 Du        
   7675 ****        69.5000  19.2500  28.7500 Du        
   7676 ****        69.7500  14.5000  28.5000 Du        
   7677 ****        69.7500  14.7500  28.0000 Du        
   7678 ****        69.7500  14.7500  28.2500 Du        
   7679 ****        69.7500  14.7500  28.5000 Du        
   7680 ****        69.7500  15.0000  27.7500 Du        
   7681 ****        69.7500  15.0000  28.0000 Du        
   7682 ****        69.7500  15.0000  28.2500 Du        
   7683 ****        69.7500  15.0000  28.5000 Du        
   7684 ****        69.7500  15.0000  28.7500 Du        
   7685 ****        69.7500  15.2500  27.2500 Du        
   7686 ****        69.7500  15.2500  27.5000 Du        
   7687 ****        69.7500  15.2500  27.7500 Du        
   7688 ****        69.7500  15.2500  28.0000 Du        
   7689 ****        69.7500  15.2500  28.2500 Du        
   7690 ****        69.7500  15.2500  28.5000 Du        
   7691 ****        69.7500  15.2500  28.7500 Du        
   7692 ****        69.7500  15.5000  27.2500 Du        
   7693 ****        69.7500  15.5000  27.5000 Du        
   7694 ****        69.7500  15.5000  27.7500 Du        
   7695 ****        69.7500  15.5000  28.0000 Du        
   7696 ****        69.7500  15.5000  28.2500 Du        
   7697 ****        69.7500  15.5000  28.5000 Du        
   7698 ****        69.7500  15.5000  28.7500 Du        
   7699 ****        69.7500  15.7500  27.0000 Du        
   7700 ****        69.7500  15.7500  27.2500 Du        
   7701 ****        69.7500  15.7500  27.5000 Du        
   7702 ****        69.7500  15.7500  27.7500 Du        
   7703 ****        69.7500  15.7500  28.0000 Du        
   7704 ****        69.7500  15.7500  28.2500 Du        
   7705 ****        69.7500  15.7500  28.5000 Du        
   7706 ****        69.7500  15.7500  28.7500 Du        
   7707 ****        69.7500  16.0000  27.0000 Du        
   7708 ****        69.7500  16.0000  27.2500 Du        
   7709 ****        69.7500  16.0000  27.5000 Du        
   7710 ****        69.7500  16.0000  27.7500 Du        
   7711 ****        69.7500  16.0000  28.0000 Du        
   7712 ****        69.7500  16.0000  28.2500 Du        
   7713 ****        69.7500  16.0000  28.5000 Du        
   7714 ****        69.7500  16.0000  28.7500 Du        
   7715 ****        69.7500  16.2500  26.7500 Du        
   7716 ****        69.7500  16.2500  27.0000 Du        
   7717 ****        69.7500  16.2500  27.2500 Du        
   7718 ****        69.7500  16.2500  27.5000 Du        
   7719 ****        69.7500  16.2500  27.7500 Du        
   7720 ****        69.7500  16.2500  28.0000 Du        
   7721 ****        69.7500  16.2500  28.2500 Du        
   7722 ****        69.7500  16.2500  28.5000 Du        
   7723 ****        69.7500  16.2500  28.7500 Du        
   7724 ****        69.7500  16.5000  27.0000 Du        
   7725 ****        69.7500  16.5000  27.2500 Du        
   7726 ****        69.7500  16.5000  27.5000 Du        
   7727 ****        69.7500  16.5000  27.7500 Du        
   7728 ****        69.7500  16.5000  28.0000 Du        
   7729 ****        69.7500  16.5000  28.2500 Du        
   7730 ****        69.7500  16.5000  28.5000 Du        
   7731 ****        69.7500  16.5000  28.7500 Du        
   7732 ****        69.7500  16.7500  27.0000 Du        
   7733 ****        69.7500  16.7500  27.2500 Du        
   7734 ****        69.7500  16.7500  27.5000 Du        
   7735 ****        69.7500  16.7500  27.7500 Du        
   7736 ****        69.7500  16.7500  28.0000 Du        
   7737 ****        69.7500  16.7500  28.2500 Du        
   7738 ****        69.7500  16.7500  28.5000 Du        
   7739 ****        69.7500  16.7500  28.7500 Du        
   7740 ****        69.7500  17.0000  27.0000 Du        
   7741 ****        69.7500  17.0000  27.2500 Du        
   7742 ****        69.7500  17.0000  27.5000 Du        
   7743 ****        69.7500  17.0000  27.7500 Du        
   7744 ****        69.7500  17.0000  28.0000 Du        
   7745 ****        69.7500  17.0000  28.2500 Du        
   7746 ****        69.7500  17.0000  28.5000 Du        
   7747 ****        69.7500  17.0000  28.7500 Du        
   7748 ****        69.7500  17.2500  27.2500 Du        
   7749 ****        69.7500  17.2500  27.5000 Du        
   7750 ****        69.7500  17.2500  27.7500 Du        
   7751 ****        69.7500  17.2500  28.0000 Du        
   7752 ****        69.7500  17.2500  28.2500 Du        
   7753 ****        69.7500  17.2500  28.5000 Du        
   7754 ****        69.7500  17.2500  28.7500 Du        
   7755 ****        69.7500  17.5000  27.2500 Du        
   7756 ****        69.7500  17.5000  27.5000 Du        
   7757 ****        69.7500  17.5000  27.7500 Du        
   7758 ****        69.7500  17.5000  28.0000 Du        
   7759 ****        69.7500  17.5000  28.2500 Du        
   7760 ****        69.7500  17.5000  28.5000 Du        
   7761 ****        69.7500  17.5000  28.7500 Du        
   7762 ****        69.7500  17.7500  27.2500 Du        
   7763 ****        69.7500  17.7500  27.5000 Du        
   7764 ****        69.7500  17.7500  27.7500 Du        
   7765 ****        69.7500  17.7500  28.0000 Du        
   7766 ****        69.7500  17.7500  28.2500 Du        
   7767 ****        69.7500  17.7500  28.5000 Du        
   7768 ****        69.7500  17.7500  28.7500 Du        
   7769 ****        69.7500  18.0000  27.5000 Du        
   7770 ****        69.7500  18.0000  27.7500 Du        
   7771 ****        69.7500  18.0000  28.0000 Du        
   7772 ****        69.7500  18.0000  28.2500 Du        
   7773 ****        69.7500  18.0000  28.5000 Du        
   7774 ****        69.7500  18.0000  28.7500 Du        
   7775 ****        69.7500  18.2500  27.7500 Du        
   7776 ****        69.7500  18.2500  28.0000 Du        
   7777 ****        69.7500  18.2500  28.2500 Du        
   7778 ****        69.7500  18.2500  28.5000 Du        
   7779 ****        69.7500  18.2500  28.7500 Du        
   7780 ****        69.7500  18.5000  28.0000 Du        
   7781 ****        69.7500  18.5000  28.2500 Du        
   7782 ****        69.7500  18.5000  28.5000 Du        
   7783 ****        69.7500  18.5000  28.7500 Du        
   7784 ****        69.7500  18.7500  28.0000 Du        
   7785 ****        69.7500  18.7500  28.2500 Du        
   7786 ****        69.7500  18.7500  28.5000 Du        
   7787 ****        69.7500  18.7500  28.7500 Du        
   7788 ****        69.7500  19.0000  28.2500 Du        
   7789 ****        69.7500  19.0000  28.5000 Du        
   7790 ****        69.7500  19.0000  28.7500 Du        
   7791 ****        69.7500  19.2500  28.5000 Du        
   7792 ****        69.7500  19.2500  28.7500 Du        
   7793 ****        70.0000  12.2500  28.2500 Du        
   7794 ****        70.0000  12.2500  28.5000 Du        
   7795 ****        70.0000  12.5000  28.5000 Du        
   7796 ****        70.0000  12.5000  28.7500 Du        
   7797 ****        70.0000  12.7500  28.5000 Du        
   7798 ****        70.0000  12.7500  28.7500 Du        
   7799 ****        70.0000  13.0000  28.5000 Du        
   7800 ****        70.0000  13.0000  28.7500 Du        
   7801 ****        70.0000  13.2500  28.5000 Du        
   7802 ****        70.0000  13.2500  28.7500 Du        
   7803 ****        70.0000  14.0000  28.2500 Du        
   7804 ****        70.0000  14.0000  28.5000 Du        
   7805 ****        70.0000  14.2500  28.0000 Du        
   7806 ****        70.0000  14.2500  28.2500 Du        
   7807 ****        70.0000  14.2500  28.5000 Du        
   7808 ****        70.0000  14.5000  28.0000 Du        
   7809 ****        70.0000  14.5000  28.2500 Du        
   7810 ****        70.0000  14.5000  28.5000 Du        
   7811 ****        70.0000  14.7500  27.5000 Du        
   7812 ****        70.0000  14.7500  27.7500 Du        
   7813 ****        70.0000  14.7500  28.0000 Du        
   7814 ****        70.0000  14.7500  28.2500 Du        
   7815 ****        70.0000  14.7500  28.5000 Du        
   7816 ****        70.0000  14.7500  28.7500 Du        
   7817 ****        70.0000  15.0000  27.2500 Du        
   7818 ****        70.0000  15.0000  27.5000 Du        
   7819 ****        70.0000  15.0000  27.7500 Du        
   7820 ****        70.0000  15.0000  28.0000 Du        
   7821 ****        70.0000  15.0000  28.2500 Du        
   7822 ****        70.0000  15.0000  28.5000 Du        
   7823 ****        70.0000  15.0000  28.7500 Du        
   7824 ****        70.0000  15.2500  27.0000 Du        
   7825 ****        70.0000  15.2500  27.2500 Du        
   7826 ****        70.0000  15.2500  27.5000 Du        
   7827 ****        70.0000  15.2500  27.7500 Du        
   7828 ****        70.0000  15.2500  28.0000 Du        
   7829 ****        70.0000  15.2500  28.2500 Du        
   7830 ****        70.0000  15.2500  28.5000 Du        
   7831 ****        70.0000  15.2500  28.7500 Du        
   7832 ****        70.0000  15.5000  27.0000 Du        
   7833 ****        70.0000  15.5000  27.2500 Du        
   7834 ****        70.0000  15.5000  27.5000 Du        
   7835 ****        70.0000  15.5000  27.7500 Du        
   7836 ****        70.0000  15.5000  28.0000 Du        
   7837 ****        70.0000  15.5000  28.2500 Du        
   7838 ****        70.0000  15.5000  28.5000 Du        
   7839 ****        70.0000  15.5000  28.7500 Du        
   7840 ****        70.0000  15.7500  26.7500 Du        
   7841 ****        70.0000  15.7500  27.0000 Du        
   7842 ****        70.0000  15.7500  27.2500 Du        
   7843 ****        70.0000  15.7500  27.5000 Du        
   7844 ****        70.0000  15.7500  27.7500 Du        
   7845 ****        70.0000  15.7500  28.0000 Du        
   7846 ****        70.0000  15.7500  28.2500 Du        
   7847 ****        70.0000  15.7500  28.5000 Du        
   7848 ****        70.0000  15.7500  28.7500 Du        
   7849 ****        70.0000  16.0000  26.7500 Du        
   7850 ****        70.0000  16.0000  27.0000 Du        
   7851 ****        70.0000  16.0000  27.2500 Du        
   7852 ****        70.0000  16.0000  27.5000 Du        
   7853 ****        70.0000  16.0000  27.7500 Du        
   7854 ****        70.0000  16.0000  28.0000 Du        
   7855 ****        70.0000  16.0000  28.2500 Du        
   7856 ****        70.0000  16.0000  28.5000 Du        
   7857 ****        70.0000  16.0000  28.7500 Du        
   7858 ****        70.0000  16.2500  26.7500 Du        
   7859 ****        70.0000  16.2500  27.0000 Du        
   7860 ****        70.0000  16.2500  27.2500 Du        
   7861 ****        70.0000  16.2500  27.5000 Du        
   7862 ****        70.0000  16.2500  27.7500 Du        
   7863 ****        70.0000  16.2500  28.0000 Du        
   7864 ****        70.0000  16.2500  28.2500 Du        
   7865 ****        70.0000  16.2500  28.5000 Du        
   7866 ****        70.0000  16.2500  28.7500 Du        
   7867 ****        70.0000  16.5000  27.0000 Du        
   7868 ****        70.0000  16.5000  27.2500 Du        
   7869 ****        70.0000  16.5000  27.5000 Du        
   7870 ****        70.0000  16.5000  27.7500 Du        
   7871 ****        70.0000  16.5000  28.0000 Du        
   7872 ****        70.0000  16.5000  28.2500 Du        
   7873 ****        70.0000  16.5000  28.5000 Du        
   7874 ****        70.0000  16.5000  28.7500 Du        
   7875 ****        70.0000  16.7500  27.0000 Du        
   7876 ****        70.0000  16.7500  27.2500 Du        
   7877 ****        70.0000  16.7500  27.5000 Du        
   7878 ****        70.0000  16.7500  27.7500 Du        
   7879 ****        70.0000  16.7500  28.0000 Du        
   7880 ****        70.0000  16.7500  28.2500 Du        
   7881 ****        70.0000  16.7500  28.5000 Du        
   7882 ****        70.0000  16.7500  28.7500 Du        
   7883 ****        70.0000  17.0000  27.0000 Du        
   7884 ****        70.0000  17.0000  27.2500 Du        
   7885 ****        70.0000  17.0000  27.5000 Du        
   7886 ****        70.0000  17.0000  27.7500 Du        
   7887 ****        70.0000  17.0000  28.0000 Du        
   7888 ****        70.0000  17.0000  28.2500 Du        
   7889 ****        70.0000  17.0000  28.5000 Du        
   7890 ****        70.0000  17.0000  28.7500 Du        
   7891 ****        70.0000  17.2500  27.2500 Du        
   7892 ****        70.0000  17.2500  27.5000 Du        
   7893 ****        70.0000  17.2500  27.7500 Du        
   7894 ****        70.0000  17.2500  28.0000 Du        
   7895 ****        70.0000  17.2500  28.2500 Du        
   7896 ****        70.0000  17.2500  28.5000 Du        
   7897 ****        70.0000  17.2500  28.7500 Du        
   7898 ****        70.0000  17.5000  27.2500 Du        
   7899 ****        70.0000  17.5000  27.5000 Du        
   7900 ****        70.0000  17.5000  27.7500 Du        
   7901 ****        70.0000  17.5000  28.0000 Du        
   7902 ****        70.0000  17.5000  28.2500 Du        
   7903 ****        70.0000  17.5000  28.5000 Du        
   7904 ****        70.0000  17.5000  28.7500 Du        
   7905 ****        70.0000  17.7500  27.5000 Du        
   7906 ****        70.0000  17.7500  27.7500 Du        
   7907 ****        70.0000  17.7500  28.0000 Du        
   7908 ****        70.0000  17.7500  28.2500 Du        
   7909 ****        70.0000  17.7500  28.5000 Du        
   7910 ****        70.0000  17.7500  28.7500 Du        
   7911 ****        70.0000  18.0000  27.7500 Du        
   7912 ****        70.0000  18.0000  28.0000 Du        
   7913 ****        70.0000  18.0000  28.2500 Du        
   7914 ****        70.0000  18.0000  28.5000 Du        
   7915 ****        70.0000  18.0000  28.7500 Du        
   7916 ****        70.0000  18.2500  27.7500 Du        
   7917 ****        70.0000  18.2500  28.0000 Du        
   7918 ****        70.0000  18.2500  28.2500 Du        
   7919 ****        70.0000  18.2500  28.5000 Du        
   7920 ****        70.0000  18.2500  28.7500 Du        
   7921 ****        70.0000  18.5000  28.0000 Du        
   7922 ****        70.0000  18.5000  28.2500 Du        
   7923 ****        70.0000  18.5000  28.5000 Du        
   7924 ****        70.0000  18.5000  28.7500 Du        
   7925 ****        70.0000  18.7500  28.2500 Du        
   7926 ****        70.0000  18.7500  28.5000 Du        
   7927 ****        70.0000  18.7500  28.7500 Du        
   7928 ****        70.0000  19.0000  28.2500 Du        
   7929 ****        70.0000  19.0000  28.5000 Du        
   7930 ****        70.0000  19.0000  28.7500 Du        
   7931 ****        70.2500  11.7500  27.7500 Du        
   7932 ****        70.2500  12.0000  27.5000 Du        
   7933 ****        70.2500  12.0000  27.7500 Du        
   7934 ****        70.2500  12.0000  28.0000 Du        
   7935 ****        70.2500  12.2500  27.5000 Du        
   7936 ****        70.2500  12.2500  27.7500 Du        
   7937 ****        70.2500  12.2500  28.0000 Du        
   7938 ****        70.2500  12.2500  28.2500 Du        
   7939 ****        70.2500  12.5000  27.7500 Du        
   7940 ****        70.2500  12.5000  28.0000 Du        
   7941 ****        70.2500  12.5000  28.2500 Du        
   7942 ****        70.2500  12.5000  28.5000 Du        
   7943 ****        70.2500  12.7500  28.0000 Du        
   7944 ****        70.2500  12.7500  28.2500 Du        
   7945 ****        70.2500  12.7500  28.5000 Du        
   7946 ****        70.2500  12.7500  28.7500 Du        
   7947 ****        70.2500  13.0000  28.0000 Du        
   7948 ****        70.2500  13.0000  28.2500 Du        
   7949 ****        70.2500  13.0000  28.5000 Du        
   7950 ****        70.2500  13.0000  28.7500 Du        
   7951 ****        70.2500  13.2500  28.0000 Du        
   7952 ****        70.2500  13.2500  28.2500 Du        
   7953 ****        70.2500  13.2500  28.5000 Du        
   7954 ****        70.2500  13.2500  28.7500 Du        
   7955 ****        70.2500  13.5000  28.0000 Du        
   7956 ****        70.2500  13.5000  28.2500 Du        
   7957 ****        70.2500  13.5000  28.5000 Du        
   7958 ****        70.2500  13.5000  28.7500 Du        
   7959 ****        70.2500  13.7500  28.0000 Du        
   7960 ****        70.2500  13.7500  28.2500 Du        
   7961 ****        70.2500  13.7500  28.5000 Du        
   7962 ****        70.2500  14.0000  27.7500 Du        
   7963 ****        70.2500  14.0000  28.0000 Du        
   7964 ****        70.2500  14.0000  28.2500 Du        
   7965 ****        70.2500  14.0000  28.5000 Du        
   7966 ****        70.2500  14.2500  27.5000 Du        
   7967 ****        70.2500  14.2500  27.7500 Du        
   7968 ****        70.2500  14.2500  28.0000 Du        
   7969 ****        70.2500  14.2500  28.2500 Du        
   7970 ****        70.2500  14.2500  28.5000 Du        
   7971 ****        70.2500  14.5000  27.2500 Du        
   7972 ****        70.2500  14.5000  27.5000 Du        
   7973 ****        70.2500  14.5000  27.7500 Du        
   7974 ****        70.2500  14.5000  28.0000 Du        
   7975 ****        70.2500  14.5000  28.2500 Du        
   7976 ****        70.2500  14.5000  28.5000 Du        
   7977 ****        70.2500  14.7500  27.0000 Du        
   7978 ****        70.2500  14.7500  27.2500 Du        
   7979 ****        70.2500  14.7500  27.5000 Du        
   7980 ****        70.2500  14.7500  27.7500 Du        
   7981 ****        70.2500  14.7500  28.0000 Du        
   7982 ****        70.2500  14.7500  28.2500 Du        
   7983 ****        70.2500  14.7500  28.5000 Du        
   7984 ****        70.2500  15.0000  27.0000 Du        
   7985 ****        70.2500  15.0000  27.2500 Du        
   7986 ****        70.2500  15.0000  27.5000 Du        
   7987 ****        70.2500  15.0000  27.7500 Du        
   7988 ****        70.2500  15.0000  28.0000 Du        
   7989 ****        70.2500  15.0000  28.2500 Du        
   7990 ****        70.2500  15.0000  28.5000 Du        
   7991 ****        70.2500  15.2500  26.7500 Du        
   7992 ****        70.2500  15.2500  27.0000 Du        
   7993 ****        70.2500  15.2500  27.2500 Du        
   7994 ****        70.2500  15.2500  27.5000 Du        
   7995 ****        70.2500  15.2500  27.7500 Du        
   7996 ****        70.2500  15.2500  28.0000 Du        
   7997 ****        70.2500  15.2500  28.2500 Du        
   7998 ****        70.2500  15.2500  28.5000 Du        
   7999 ****        70.2500  15.2500  28.7500 Du        
   8000 ****        70.2500  15.5000  26.7500 Du        
   8001 ****        70.2500  15.5000  27.0000 Du        
   8002 ****        70.2500  15.5000  27.2500 Du        
   8003 ****        70.2500  15.5000  27.5000 Du        
   8004 ****        70.2500  15.5000  27.7500 Du        
   8005 ****        70.2500  15.5000  28.0000 Du        
   8006 ****        70.2500  15.5000  28.2500 Du        
   8007 ****        70.2500  15.5000  28.5000 Du        
   8008 ****        70.2500  15.5000  28.7500 Du        
   8009 ****        70.2500  15.7500  26.7500 Du        
   8010 ****        70.2500  15.7500  27.0000 Du        
   8011 ****        70.2500  15.7500  27.2500 Du        
   8012 ****        70.2500  15.7500  27.5000 Du        
   8013 ****        70.2500  15.7500  27.7500 Du        
   8014 ****        70.2500  15.7500  28.0000 Du        
   8015 ****        70.2500  15.7500  28.2500 Du        
   8016 ****        70.2500  15.7500  28.5000 Du        
   8017 ****        70.2500  15.7500  28.7500 Du        
   8018 ****        70.2500  16.0000  26.7500 Du        
   8019 ****        70.2500  16.0000  27.0000 Du        
   8020 ****        70.2500  16.0000  27.2500 Du        
   8021 ****        70.2500  16.0000  27.5000 Du        
   8022 ****        70.2500  16.0000  27.7500 Du        
   8023 ****        70.2500  16.0000  28.0000 Du        
   8024 ****        70.2500  16.0000  28.2500 Du        
   8025 ****        70.2500  16.0000  28.5000 Du        
   8026 ****        70.2500  16.0000  28.7500 Du        
   8027 ****        70.2500  16.2500  27.0000 Du        
   8028 ****        70.2500  16.2500  27.2500 Du        
   8029 ****        70.2500  16.2500  27.5000 Du        
   8030 ****        70.2500  16.2500  27.7500 Du        
   8031 ****        70.2500  16.2500  28.0000 Du        
   8032 ****        70.2500  16.2500  28.2500 Du        
   8033 ****        70.2500  16.2500  28.5000 Du        
   8034 ****        70.2500  16.2500  28.7500 Du        
   8035 ****        70.2500  16.5000  27.0000 Du        
   8036 ****        70.2500  16.5000  27.2500 Du        
   8037 ****        70.2500  16.5000  27.5000 Du        
   8038 ****        70.2500  16.5000  27.7500 Du        
   8039 ****        70.2500  16.5000  28.0000 Du        
   8040 ****        70.2500  16.5000  28.2500 Du        
   8041 ****        70.2500  16.5000  28.5000 Du        
   8042 ****        70.2500  16.5000  28.7500 Du        
   8043 ****        70.2500  16.7500  27.0000 Du        
   8044 ****        70.2500  16.7500  27.2500 Du        
   8045 ****        70.2500  16.7500  27.5000 Du        
   8046 ****        70.2500  16.7500  27.7500 Du        
   8047 ****        70.2500  16.7500  28.0000 Du        
   8048 ****        70.2500  16.7500  28.2500 Du        
   8049 ****        70.2500  16.7500  28.5000 Du        
   8050 ****        70.2500  16.7500  28.7500 Du        
   8051 ****        70.2500  17.0000  27.2500 Du        
   8052 ****        70.2500  17.0000  27.5000 Du        
   8053 ****        70.2500  17.0000  27.7500 Du        
   8054 ****        70.2500  17.0000  28.0000 Du        
   8055 ****        70.2500  17.0000  28.2500 Du        
   8056 ****        70.2500  17.0000  28.5000 Du        
   8057 ****        70.2500  17.0000  28.7500 Du        
   8058 ****        70.2500  17.2500  27.2500 Du        
   8059 ****        70.2500  17.2500  27.5000 Du        
   8060 ****        70.2500  17.2500  27.7500 Du        
   8061 ****        70.2500  17.2500  28.0000 Du        
   8062 ****        70.2500  17.2500  28.2500 Du        
   8063 ****        70.2500  17.2500  28.5000 Du        
   8064 ****        70.2500  17.2500  28.7500 Du        
   8065 ****        70.2500  17.5000  27.5000 Du        
   8066 ****        70.2500  17.5000  27.7500 Du        
   8067 ****        70.2500  17.5000  28.0000 Du        
   8068 ****        70.2500  17.5000  28.2500 Du        
   8069 ****        70.2500  17.5000  28.5000 Du        
   8070 ****        70.2500  17.5000  28.7500 Du        
   8071 ****        70.2500  17.7500  27.5000 Du        
   8072 ****        70.2500  17.7500  27.7500 Du        
   8073 ****        70.2500  17.7500  28.0000 Du        
   8074 ****        70.2500  17.7500  28.2500 Du        
   8075 ****        70.2500  17.7500  28.5000 Du        
   8076 ****        70.2500  17.7500  28.7500 Du        
   8077 ****        70.2500  18.0000  27.7500 Du        
   8078 ****        70.2500  18.0000  28.0000 Du        
   8079 ****        70.2500  18.0000  28.2500 Du        
   8080 ****        70.2500  18.0000  28.5000 Du        
   8081 ****        70.2500  18.0000  28.7500 Du        
   8082 ****        70.2500  18.2500  27.7500 Du        
   8083 ****        70.2500  18.2500  28.0000 Du        
   8084 ****        70.2500  18.2500  28.2500 Du        
   8085 ****        70.2500  18.2500  28.5000 Du        
   8086 ****        70.2500  18.2500  28.7500 Du        
   8087 ****        70.2500  18.5000  28.0000 Du        
   8088 ****        70.2500  18.5000  28.2500 Du        
   8089 ****        70.2500  18.5000  28.5000 Du        
   8090 ****        70.2500  18.7500  28.2500 Du        
   8091 ****        70.2500  18.7500  28.5000 Du        
   8092 ****        70.2500  19.0000  28.5000 Du        
   8093 ****        70.5000  11.7500  27.0000 Du        
   8094 ****        70.5000  11.7500  27.2500 Du        
   8095 ****        70.5000  11.7500  27.5000 Du        
   8096 ****        70.5000  11.7500  27.7500 Du        
   8097 ****        70.5000  12.0000  27.0000 Du        
   8098 ****        70.5000  12.0000  27.2500 Du        
   8099 ****        70.5000  12.0000  27.5000 Du        
   8100 ****        70.5000  12.0000  27.7500 Du        
   8101 ****        70.5000  12.0000  28.0000 Du        
   8102 ****        70.5000  12.2500  27.0000 Du        
   8103 ****        70.5000  12.2500  27.2500 Du        
   8104 ****        70.5000  12.2500  27.5000 Du        
   8105 ****        70.5000  12.2500  27.7500 Du        
   8106 ****        70.5000  12.2500  28.0000 Du        
   8107 ****        70.5000  12.2500  28.2500 Du        
   8108 ****        70.5000  12.5000  27.2500 Du        
   8109 ****        70.5000  12.5000  27.5000 Du        
   8110 ****        70.5000  12.5000  27.7500 Du        
   8111 ****        70.5000  12.5000  28.0000 Du        
   8112 ****        70.5000  12.5000  28.2500 Du        
   8113 ****        70.5000  12.5000  28.5000 Du        
   8114 ****        70.5000  12.7500  27.2500 Du        
   8115 ****        70.5000  12.7500  27.5000 Du        
   8116 ****        70.5000  12.7500  27.7500 Du        
   8117 ****        70.5000  12.7500  28.0000 Du        
   8118 ****        70.5000  12.7500  28.2500 Du        
   8119 ****        70.5000  12.7500  28.5000 Du        
   8120 ****        70.5000  12.7500  28.7500 Du        
   8121 ****        70.5000  13.0000  27.2500 Du        
   8122 ****        70.5000  13.0000  27.5000 Du        
   8123 ****        70.5000  13.0000  27.7500 Du        
   8124 ****        70.5000  13.0000  28.0000 Du        
   8125 ****        70.5000  13.0000  28.2500 Du        
   8126 ****        70.5000  13.0000  28.5000 Du        
   8127 ****        70.5000  13.0000  28.7500 Du        
   8128 ****        70.5000  13.2500  27.2500 Du        
   8129 ****        70.5000  13.2500  27.5000 Du        
   8130 ****        70.5000  13.2500  27.7500 Du        
   8131 ****        70.5000  13.2500  28.0000 Du        
   8132 ****        70.5000  13.2500  28.2500 Du        
   8133 ****        70.5000  13.2500  28.5000 Du        
   8134 ****        70.5000  13.2500  28.7500 Du        
   8135 ****        70.5000  13.5000  27.2500 Du        
   8136 ****        70.5000  13.5000  27.5000 Du        
   8137 ****        70.5000  13.5000  27.7500 Du        
   8138 ****        70.5000  13.5000  28.0000 Du        
   8139 ****        70.5000  13.5000  28.2500 Du        
   8140 ****        70.5000  13.5000  28.5000 Du        
   8141 ****        70.5000  13.5000  28.7500 Du        
   8142 ****        70.5000  13.7500  27.2500 Du        
   8143 ****        70.5000  13.7500  27.5000 Du        
   8144 ****        70.5000  13.7500  27.7500 Du        
   8145 ****        70.5000  13.7500  28.0000 Du        
   8146 ****        70.5000  13.7500  28.2500 Du        
   8147 ****        70.5000  13.7500  28.5000 Du        
   8148 ****        70.5000  14.0000  27.2500 Du        
   8149 ****        70.5000  14.0000  27.5000 Du        
   8150 ****        70.5000  14.0000  27.7500 Du        
   8151 ****        70.5000  14.0000  28.0000 Du        
   8152 ****        70.5000  14.0000  28.2500 Du        
   8153 ****        70.5000  14.0000  28.5000 Du        
   8154 ****        70.5000  14.2500  27.0000 Du        
   8155 ****        70.5000  14.2500  27.2500 Du        
   8156 ****        70.5000  14.2500  27.5000 Du        
   8157 ****        70.5000  14.2500  27.7500 Du        
   8158 ****        70.5000  14.2500  28.0000 Du        
   8159 ****        70.5000  14.2500  28.2500 Du        
   8160 ****        70.5000  14.2500  28.5000 Du        
   8161 ****        70.5000  14.5000  27.0000 Du        
   8162 ****        70.5000  14.5000  27.2500 Du        
   8163 ****        70.5000  14.5000  27.5000 Du        
   8164 ****        70.5000  14.5000  27.7500 Du        
   8165 ****        70.5000  14.5000  28.0000 Du        
   8166 ****        70.5000  14.5000  28.2500 Du        
   8167 ****        70.5000  14.7500  27.0000 Du        
   8168 ****        70.5000  14.7500  27.2500 Du        
   8169 ****        70.5000  14.7500  27.5000 Du        
   8170 ****        70.5000  14.7500  27.7500 Du        
   8171 ****        70.5000  14.7500  28.0000 Du        
   8172 ****        70.5000  14.7500  28.2500 Du        
   8173 ****        70.5000  15.0000  27.0000 Du        
   8174 ****        70.5000  15.0000  27.2500 Du        
   8175 ****        70.5000  15.0000  27.5000 Du        
   8176 ****        70.5000  15.0000  27.7500 Du        
   8177 ****        70.5000  15.0000  28.0000 Du        
   8178 ****        70.5000  15.0000  28.2500 Du        
   8179 ****        70.5000  15.2500  26.7500 Du        
   8180 ****        70.5000  15.2500  27.0000 Du        
   8181 ****        70.5000  15.2500  27.2500 Du        
   8182 ****        70.5000  15.2500  27.5000 Du        
   8183 ****        70.5000  15.2500  27.7500 Du        
   8184 ****        70.5000  15.2500  28.0000 Du        
   8185 ****        70.5000  15.2500  28.2500 Du        
   8186 ****        70.5000  15.2500  28.5000 Du        
   8187 ****        70.5000  15.5000  26.7500 Du        
   8188 ****        70.5000  15.5000  27.0000 Du        
   8189 ****        70.5000  15.5000  27.2500 Du        
   8190 ****        70.5000  15.5000  27.5000 Du        
   8191 ****        70.5000  15.5000  27.7500 Du        
   8192 ****        70.5000  15.5000  28.0000 Du        
   8193 ****        70.5000  15.5000  28.2500 Du        
   8194 ****        70.5000  15.5000  28.5000 Du        
   8195 ****        70.5000  15.7500  26.7500 Du        
   8196 ****        70.5000  15.7500  27.0000 Du        
   8197 ****        70.5000  15.7500  27.2500 Du        
   8198 ****        70.5000  15.7500  27.5000 Du        
   8199 ****        70.5000  15.7500  27.7500 Du        
   8200 ****        70.5000  15.7500  28.0000 Du        
   8201 ****        70.5000  15.7500  28.2500 Du        
   8202 ****        70.5000  15.7500  28.5000 Du        
   8203 ****        70.5000  16.0000  26.7500 Du        
   8204 ****        70.5000  16.0000  27.0000 Du        
   8205 ****        70.5000  16.0000  27.2500 Du        
   8206 ****        70.5000  16.0000  27.5000 Du        
   8207 ****        70.5000  16.0000  27.7500 Du        
   8208 ****        70.5000  16.0000  28.0000 Du        
   8209 ****        70.5000  16.0000  28.2500 Du        
   8210 ****        70.5000  16.0000  28.5000 Du        
   8211 ****        70.5000  16.2500  27.0000 Du        
   8212 ****        70.5000  16.2500  27.2500 Du        
   8213 ****        70.5000  16.2500  27.5000 Du        
   8214 ****        70.5000  16.2500  27.7500 Du        
   8215 ****        70.5000  16.2500  28.0000 Du        
   8216 ****        70.5000  16.2500  28.2500 Du        
   8217 ****        70.5000  16.2500  28.5000 Du        
   8218 ****        70.5000  16.2500  28.7500 Du        
   8219 ****        70.5000  16.5000  27.0000 Du        
   8220 ****        70.5000  16.5000  27.2500 Du        
   8221 ****        70.5000  16.5000  27.5000 Du        
   8222 ****        70.5000  16.5000  27.7500 Du        
   8223 ****        70.5000  16.5000  28.0000 Du        
   8224 ****        70.5000  16.5000  28.2500 Du        
   8225 ****        70.5000  16.5000  28.5000 Du        
   8226 ****        70.5000  16.5000  28.7500 Du        
   8227 ****        70.5000  16.7500  27.0000 Du        
   8228 ****        70.5000  16.7500  27.2500 Du        
   8229 ****        70.5000  16.7500  27.5000 Du        
   8230 ****        70.5000  16.7500  27.7500 Du        
   8231 ****        70.5000  16.7500  28.0000 Du        
   8232 ****        70.5000  16.7500  28.2500 Du        
   8233 ****        70.5000  16.7500  28.5000 Du        
   8234 ****        70.5000  16.7500  28.7500 Du        
   8235 ****        70.5000  17.0000  27.2500 Du        
   8236 ****        70.5000  17.0000  27.5000 Du        
   8237 ****        70.5000  17.0000  27.7500 Du        
   8238 ****        70.5000  17.0000  28.0000 Du        
   8239 ****        70.5000  17.0000  28.2500 Du        
   8240 ****        70.5000  17.0000  28.5000 Du        
   8241 ****        70.5000  17.0000  28.7500 Du        
   8242 ****        70.5000  17.2500  27.2500 Du        
   8243 ****        70.5000  17.2500  27.5000 Du        
   8244 ****        70.5000  17.2500  27.7500 Du        
   8245 ****        70.5000  17.2500  28.0000 Du        
   8246 ****        70.5000  17.2500  28.2500 Du        
   8247 ****        70.5000  17.2500  28.5000 Du        
   8248 ****        70.5000  17.2500  28.7500 Du        
   8249 ****        70.5000  17.5000  27.5000 Du        
   8250 ****        70.5000  17.5000  27.7500 Du        
   8251 ****        70.5000  17.5000  28.0000 Du        
   8252 ****        70.5000  17.5000  28.2500 Du        
   8253 ****        70.5000  17.5000  28.5000 Du        
   8254 ****        70.5000  17.5000  28.7500 Du        
   8255 ****        70.5000  17.7500  27.7500 Du        
   8256 ****        70.5000  17.7500  28.0000 Du        
   8257 ****        70.5000  17.7500  28.2500 Du        
   8258 ****        70.5000  17.7500  28.5000 Du        
   8259 ****        70.5000  17.7500  28.7500 Du        
   8260 ****        70.5000  18.0000  27.7500 Du        
   8261 ****        70.5000  18.0000  28.0000 Du        
   8262 ****        70.5000  18.0000  28.2500 Du        
   8263 ****        70.5000  18.0000  28.5000 Du        
   8264 ****        70.5000  18.2500  28.0000 Du        
   8265 ****        70.5000  18.2500  28.2500 Du        
   8266 ****        70.5000  18.2500  28.5000 Du        
   8267 ****        70.5000  18.5000  28.0000 Du        
   8268 ****        70.5000  18.5000  28.2500 Du        
   8269 ****        70.5000  18.5000  28.5000 Du        
   8270 ****        70.5000  18.7500  28.2500 Du        
   8271 ****        70.5000  18.7500  28.5000 Du        
   8272 ****        70.5000  19.0000  28.5000 Du        
   8273 ****        70.7500  11.5000  27.0000 Du        
   8274 ****        70.7500  11.5000  27.2500 Du        
   8275 ****        70.7500  11.5000  27.5000 Du        
   8276 ****        70.7500  11.7500  26.7500 Du        
   8277 ****        70.7500  11.7500  27.0000 Du        
   8278 ****        70.7500  11.7500  27.2500 Du        
   8279 ****        70.7500  11.7500  27.5000 Du        
   8280 ****        70.7500  11.7500  27.7500 Du        
   8281 ****        70.7500  12.0000  26.7500 Du        
   8282 ****        70.7500  12.0000  27.0000 Du        
   8283 ****        70.7500  12.0000  27.2500 Du        
   8284 ****        70.7500  12.0000  27.5000 Du        
   8285 ****        70.7500  12.0000  27.7500 Du        
   8286 ****        70.7500  12.0000  28.0000 Du        
   8287 ****        70.7500  12.2500  26.7500 Du        
   8288 ****        70.7500  12.2500  27.0000 Du        
   8289 ****        70.7500  12.2500  27.2500 Du        
   8290 ****        70.7500  12.2500  27.5000 Du        
   8291 ****        70.7500  12.2500  27.7500 Du        
   8292 ****        70.7500  12.2500  28.0000 Du        
   8293 ****        70.7500  12.5000  26.7500 Du        
   8294 ****        70.7500  12.5000  27.0000 Du        
   8295 ****        70.7500  12.5000  27.2500 Du        
   8296 ****        70.7500  12.5000  27.5000 Du        
   8297 ****        70.7500  12.5000  27.7500 Du        
   8298 ****        70.7500  12.5000  28.0000 Du        
   8299 ****        70.7500  12.5000  28.2500 Du        
   8300 ****        70.7500  12.7500  26.7500 Du        
   8301 ****        70.7500  12.7500  27.0000 Du        
   8302 ****        70.7500  12.7500  27.2500 Du        
   8303 ****        70.7500  12.7500  27.5000 Du        
   8304 ****        70.7500  12.7500  27.7500 Du        
   8305 ****        70.7500  12.7500  28.0000 Du        
   8306 ****        70.7500  12.7500  28.2500 Du        
   8307 ****        70.7500  12.7500  28.5000 Du        
   8308 ****        70.7500  13.0000  27.0000 Du        
   8309 ****        70.7500  13.0000  27.2500 Du        
   8310 ****        70.7500  13.0000  27.5000 Du        
   8311 ****        70.7500  13.0000  27.7500 Du        
   8312 ****        70.7500  13.0000  28.0000 Du        
   8313 ****        70.7500  13.0000  28.2500 Du        
   8314 ****        70.7500  13.0000  28.5000 Du        
   8315 ****        70.7500  13.0000  28.7500 Du        
   8316 ****        70.7500  13.2500  27.0000 Du        
   8317 ****        70.7500  13.2500  27.2500 Du        
   8318 ****        70.7500  13.2500  27.5000 Du        
   8319 ****        70.7500  13.2500  27.7500 Du        
   8320 ****        70.7500  13.2500  28.0000 Du        
   8321 ****        70.7500  13.2500  28.2500 Du        
   8322 ****        70.7500  13.2500  28.5000 Du        
   8323 ****        70.7500  13.2500  28.7500 Du        
   8324 ****        70.7500  13.5000  27.0000 Du        
   8325 ****        70.7500  13.5000  27.2500 Du        
   8326 ****        70.7500  13.5000  27.5000 Du        
   8327 ****        70.7500  13.5000  27.7500 Du        
   8328 ****        70.7500  13.5000  28.0000 Du        
   8329 ****        70.7500  13.5000  28.2500 Du        
   8330 ****        70.7500  13.5000  28.5000 Du        
   8331 ****        70.7500  13.7500  27.0000 Du        
   8332 ****        70.7500  13.7500  27.2500 Du        
   8333 ****        70.7500  13.7500  27.5000 Du        
   8334 ****        70.7500  13.7500  27.7500 Du        
   8335 ****        70.7500  13.7500  28.0000 Du        
   8336 ****        70.7500  13.7500  28.2500 Du        
   8337 ****        70.7500  13.7500  28.5000 Du        
   8338 ****        70.7500  14.0000  27.0000 Du        
   8339 ****        70.7500  14.0000  27.2500 Du        
   8340 ****        70.7500  14.0000  27.5000 Du        
   8341 ****        70.7500  14.0000  27.7500 Du        
   8342 ****        70.7500  14.0000  28.0000 Du        
   8343 ****        70.7500  14.0000  28.2500 Du        
   8344 ****        70.7500  14.2500  27.0000 Du        
   8345 ****        70.7500  14.2500  27.2500 Du        
   8346 ****        70.7500  14.2500  27.5000 Du        
   8347 ****        70.7500  14.2500  27.7500 Du        
   8348 ****        70.7500  14.2500  28.0000 Du        
   8349 ****        70.7500  14.2500  28.2500 Du        
   8350 ****        70.7500  14.5000  27.0000 Du        
   8351 ****        70.7500  14.5000  27.2500 Du        
   8352 ****        70.7500  14.5000  27.5000 Du        
   8353 ****        70.7500  14.5000  27.7500 Du        
   8354 ****        70.7500  14.5000  28.0000 Du        
   8355 ****        70.7500  14.5000  28.2500 Du        
   8356 ****        70.7500  14.7500  27.0000 Du        
   8357 ****        70.7500  14.7500  27.2500 Du        
   8358 ****        70.7500  14.7500  27.5000 Du        
   8359 ****        70.7500  14.7500  27.7500 Du        
   8360 ****        70.7500  14.7500  28.0000 Du        
   8361 ****        70.7500  14.7500  28.2500 Du        
   8362 ****        70.7500  15.0000  26.7500 Du        
   8363 ****        70.7500  15.0000  27.0000 Du        
   8364 ****        70.7500  15.0000  27.2500 Du        
   8365 ****        70.7500  15.0000  27.5000 Du        
   8366 ****        70.7500  15.0000  27.7500 Du        
   8367 ****        70.7500  15.0000  28.0000 Du        
   8368 ****        70.7500  15.0000  28.2500 Du        
   8369 ****        70.7500  15.2500  26.7500 Du        
   8370 ****        70.7500  15.2500  27.0000 Du        
   8371 ****        70.7500  15.2500  27.2500 Du        
   8372 ****        70.7500  15.2500  27.5000 Du        
   8373 ****        70.7500  15.2500  27.7500 Du        
   8374 ****        70.7500  15.2500  28.0000 Du        
   8375 ****        70.7500  15.2500  28.2500 Du        
   8376 ****        70.7500  15.5000  26.7500 Du        
   8377 ****        70.7500  15.5000  27.0000 Du        
   8378 ****        70.7500  15.5000  27.2500 Du        
   8379 ****        70.7500  15.5000  27.5000 Du        
   8380 ****        70.7500  15.5000  27.7500 Du        
   8381 ****        70.7500  15.5000  28.0000 Du        
   8382 ****        70.7500  15.5000  28.2500 Du        
   8383 ****        70.7500  15.7500  26.7500 Du        
   8384 ****        70.7500  15.7500  27.0000 Du        
   8385 ****        70.7500  15.7500  27.2500 Du        
   8386 ****        70.7500  15.7500  27.5000 Du        
   8387 ****        70.7500  15.7500  27.7500 Du        
   8388 ****        70.7500  15.7500  28.0000 Du        
   8389 ****        70.7500  15.7500  28.2500 Du        
   8390 ****        70.7500  16.0000  26.7500 Du        
   8391 ****        70.7500  16.0000  27.0000 Du        
   8392 ****        70.7500  16.0000  27.2500 Du        
   8393 ****        70.7500  16.0000  27.5000 Du        
   8394 ****        70.7500  16.0000  27.7500 Du        
   8395 ****        70.7500  16.0000  28.0000 Du        
   8396 ****        70.7500  16.0000  28.2500 Du        
   8397 ****        70.7500  16.0000  28.5000 Du        
   8398 ****        70.7500  16.2500  27.0000 Du        
   8399 ****        70.7500  16.2500  27.2500 Du        
   8400 ****        70.7500  16.2500  27.5000 Du        
   8401 ****        70.7500  16.2500  27.7500 Du        
   8402 ****        70.7500  16.2500  28.0000 Du        
   8403 ****        70.7500  16.2500  28.2500 Du        
   8404 ****        70.7500  16.2500  28.5000 Du        
   8405 ****        70.7500  16.2500  28.7500 Du        
   8406 ****        70.7500  16.5000  27.0000 Du        
   8407 ****        70.7500  16.5000  27.2500 Du        
   8408 ****        70.7500  16.5000  27.5000 Du        
   8409 ****        70.7500  16.5000  27.7500 Du        
   8410 ****        70.7500  16.5000  28.0000 Du        
   8411 ****        70.7500  16.5000  28.2500 Du        
   8412 ****        70.7500  16.5000  28.5000 Du        
   8413 ****        70.7500  16.5000  28.7500 Du        
   8414 ****        70.7500  16.7500  27.0000 Du        
   8415 ****        70.7500  16.7500  27.2500 Du        
   8416 ****        70.7500  16.7500  27.5000 Du        
   8417 ****        70.7500  16.7500  27.7500 Du        
   8418 ****        70.7500  16.7500  28.0000 Du        
   8419 ****        70.7500  16.7500  28.2500 Du        
   8420 ****        70.7500  16.7500  28.5000 Du        
   8421 ****        70.7500  16.7500  28.7500 Du        
   8422 ****        70.7500  17.0000  27.2500 Du        
   8423 ****        70.7500  17.0000  27.5000 Du        
   8424 ****        70.7500  17.0000  27.7500 Du        
   8425 ****        70.7500  17.0000  28.0000 Du        
   8426 ****        70.7500  17.0000  28.2500 Du        
   8427 ****        70.7500  17.0000  28.5000 Du        
   8428 ****        70.7500  17.0000  28.7500 Du        
   8429 ****        70.7500  17.2500  27.2500 Du        
   8430 ****        70.7500  17.2500  27.5000 Du        
   8431 ****        70.7500  17.2500  27.7500 Du        
   8432 ****        70.7500  17.2500  28.0000 Du        
   8433 ****        70.7500  17.2500  28.2500 Du        
   8434 ****        70.7500  17.2500  28.5000 Du        
   8435 ****        70.7500  17.2500  28.7500 Du        
   8436 ****        70.7500  17.5000  27.5000 Du        
   8437 ****        70.7500  17.5000  27.7500 Du        
   8438 ****        70.7500  17.5000  28.0000 Du        
   8439 ****        70.7500  17.5000  28.2500 Du        
   8440 ****        70.7500  17.5000  28.5000 Du        
   8441 ****        70.7500  17.5000  28.7500 Du        
   8442 ****        70.7500  17.7500  27.7500 Du        
   8443 ****        70.7500  17.7500  28.0000 Du        
   8444 ****        70.7500  17.7500  28.2500 Du        
   8445 ****        70.7500  17.7500  28.5000 Du        
   8446 ****        70.7500  17.7500  28.7500 Du        
   8447 ****        70.7500  18.0000  27.7500 Du        
   8448 ****        70.7500  18.0000  28.0000 Du        
   8449 ****        70.7500  18.0000  28.2500 Du        
   8450 ****        70.7500  18.0000  28.5000 Du        
   8451 ****        70.7500  18.2500  28.0000 Du        
   8452 ****        70.7500  18.2500  28.2500 Du        
   8453 ****        70.7500  18.2500  28.5000 Du        
   8454 ****        70.7500  18.5000  28.0000 Du        
   8455 ****        70.7500  18.5000  28.2500 Du        
   8456 ****        70.7500  18.5000  28.5000 Du        
   8457 ****        70.7500  18.7500  28.2500 Du        
   8458 ****        70.7500  18.7500  28.5000 Du        
   8459 ****        71.0000  11.2500  27.0000 Du        
   8460 ****        71.0000  11.5000  26.7500 Du        
   8461 ****        71.0000  11.5000  27.0000 Du        
   8462 ****        71.0000  11.5000  27.2500 Du        
   8463 ****        71.0000  11.5000  27.5000 Du        
   8464 ****        71.0000  11.7500  26.7500 Du        
   8465 ****        71.0000  11.7500  27.0000 Du        
   8466 ****        71.0000  11.7500  27.2500 Du        
   8467 ****        71.0000  11.7500  27.5000 Du        
   8468 ****        71.0000  11.7500  27.7500 Du        
   8469 ****        71.0000  12.0000  26.7500 Du        
   8470 ****        71.0000  12.0000  27.0000 Du        
   8471 ****        71.0000  12.0000  27.2500 Du        
   8472 ****        71.0000  12.0000  27.5000 Du        
   8473 ****        71.0000  12.0000  27.7500 Du        
   8474 ****        71.0000  12.2500  26.7500 Du        
   8475 ****        71.0000  12.2500  27.0000 Du        
   8476 ****        71.0000  12.2500  27.2500 Du        
   8477 ****        71.0000  12.2500  27.5000 Du        
   8478 ****        71.0000  12.2500  27.7500 Du        
   8479 ****        71.0000  12.2500  28.0000 Du        
   8480 ****        71.0000  12.5000  26.7500 Du        
   8481 ****        71.0000  12.5000  27.0000 Du        
   8482 ****        71.0000  12.5000  27.2500 Du        
   8483 ****        71.0000  12.5000  27.5000 Du        
   8484 ****        71.0000  12.5000  27.7500 Du        
   8485 ****        71.0000  12.5000  28.0000 Du        
   8486 ****        71.0000  12.5000  28.2500 Du        
   8487 ****        71.0000  12.7500  26.7500 Du        
   8488 ****        71.0000  12.7500  27.0000 Du        
   8489 ****        71.0000  12.7500  27.2500 Du        
   8490 ****        71.0000  12.7500  27.5000 Du        
   8491 ****        71.0000  12.7500  27.7500 Du        
   8492 ****        71.0000  12.7500  28.0000 Du        
   8493 ****        71.0000  12.7500  28.2500 Du        
   8494 ****        71.0000  12.7500  28.5000 Du        
   8495 ****        71.0000  13.0000  26.7500 Du        
   8496 ****        71.0000  13.0000  27.0000 Du        
   8497 ****        71.0000  13.0000  27.2500 Du        
   8498 ****        71.0000  13.0000  27.5000 Du        
   8499 ****        71.0000  13.0000  27.7500 Du        
   8500 ****        71.0000  13.0000  28.0000 Du        
   8501 ****        71.0000  13.0000  28.2500 Du        
   8502 ****        71.0000  13.0000  28.5000 Du        
   8503 ****        71.0000  13.2500  26.7500 Du        
   8504 ****        71.0000  13.2500  27.0000 Du        
   8505 ****        71.0000  13.2500  27.2500 Du        
   8506 ****        71.0000  13.2500  27.5000 Du        
   8507 ****        71.0000  13.2500  27.7500 Du        
   8508 ****        71.0000  13.2500  28.0000 Du        
   8509 ****        71.0000  13.2500  28.2500 Du        
   8510 ****        71.0000  13.2500  28.5000 Du        
   8511 ****        71.0000  13.5000  27.0000 Du        
   8512 ****        71.0000  13.5000  27.2500 Du        
   8513 ****        71.0000  13.5000  27.5000 Du        
   8514 ****        71.0000  13.5000  27.7500 Du        
   8515 ****        71.0000  13.5000  28.0000 Du        
   8516 ****        71.0000  13.5000  28.2500 Du        
   8517 ****        71.0000  13.7500  27.0000 Du        
   8518 ****        71.0000  13.7500  27.2500 Du        
   8519 ****        71.0000  13.7500  27.5000 Du        
   8520 ****        71.0000  13.7500  27.7500 Du        
   8521 ****        71.0000  13.7500  28.0000 Du        
   8522 ****        71.0000  13.7500  28.2500 Du        
   8523 ****        71.0000  14.0000  27.0000 Du        
   8524 ****        71.0000  14.0000  27.2500 Du        
   8525 ****        71.0000  14.0000  27.5000 Du        
   8526 ****        71.0000  14.0000  27.7500 Du        
   8527 ****        71.0000  14.0000  28.0000 Du        
   8528 ****        71.0000  14.2500  27.0000 Du        
   8529 ****        71.0000  14.2500  27.2500 Du        
   8530 ****        71.0000  14.2500  27.5000 Du        
   8531 ****        71.0000  14.2500  27.7500 Du        
   8532 ****        71.0000  14.2500  28.0000 Du        
   8533 ****        71.0000  14.5000  27.0000 Du        
   8534 ****        71.0000  14.5000  27.2500 Du        
   8535 ****        71.0000  14.5000  27.5000 Du        
   8536 ****        71.0000  14.5000  27.7500 Du        
   8537 ****        71.0000  14.5000  28.0000 Du        
   8538 ****        71.0000  14.7500  27.0000 Du        
   8539 ****        71.0000  14.7500  27.2500 Du        
   8540 ****        71.0000  14.7500  27.5000 Du        
   8541 ****        71.0000  14.7500  27.7500 Du        
   8542 ****        71.0000  14.7500  28.0000 Du        
   8543 ****        71.0000  15.0000  26.7500 Du        
   8544 ****        71.0000  15.0000  27.0000 Du        
   8545 ****        71.0000  15.0000  27.2500 Du        
   8546 ****        71.0000  15.0000  27.5000 Du        
   8547 ****        71.0000  15.0000  27.7500 Du        
   8548 ****        71.0000  15.0000  28.0000 Du        
   8549 ****        71.0000  15.2500  26.7500 Du        
   8550 ****        71.0000  15.2500  27.0000 Du        
   8551 ****        71.0000  15.2500  27.2500 Du        
   8552 ****        71.0000  15.2500  27.5000 Du        
   8553 ****        71.0000  15.2500  27.7500 Du        
   8554 ****        71.0000  15.2500  28.0000 Du        
   8555 ****        71.0000  15.5000  26.7500 Du        
   8556 ****        71.0000  15.5000  27.0000 Du        
   8557 ****        71.0000  15.5000  27.2500 Du        
   8558 ****        71.0000  15.5000  27.5000 Du        
   8559 ****        71.0000  15.5000  27.7500 Du        
   8560 ****        71.0000  15.5000  28.0000 Du        
   8561 ****        71.0000  15.7500  26.7500 Du        
   8562 ****        71.0000  15.7500  27.0000 Du        
   8563 ****        71.0000  15.7500  27.2500 Du        
   8564 ****        71.0000  15.7500  27.5000 Du        
   8565 ****        71.0000  15.7500  27.7500 Du        
   8566 ****        71.0000  15.7500  28.0000 Du        
   8567 ****        71.0000  15.7500  28.2500 Du        
   8568 ****        71.0000  16.0000  26.7500 Du        
   8569 ****        71.0000  16.0000  27.0000 Du        
   8570 ****        71.0000  16.0000  27.2500 Du        
   8571 ****        71.0000  16.0000  27.5000 Du        
   8572 ****        71.0000  16.0000  27.7500 Du        
   8573 ****        71.0000  16.0000  28.0000 Du        
   8574 ****        71.0000  16.0000  28.2500 Du        
   8575 ****        71.0000  16.2500  27.0000 Du        
   8576 ****        71.0000  16.2500  27.2500 Du        
   8577 ****        71.0000  16.2500  27.5000 Du        
   8578 ****        71.0000  16.2500  27.7500 Du        
   8579 ****        71.0000  16.2500  28.0000 Du        
   8580 ****        71.0000  16.2500  28.2500 Du        
   8581 ****        71.0000  16.2500  28.5000 Du        
   8582 ****        71.0000  16.5000  27.0000 Du        
   8583 ****        71.0000  16.5000  27.2500 Du        
   8584 ****        71.0000  16.5000  27.5000 Du        
   8585 ****        71.0000  16.5000  27.7500 Du        
   8586 ****        71.0000  16.5000  28.0000 Du        
   8587 ****        71.0000  16.5000  28.2500 Du        
   8588 ****        71.0000  16.5000  28.5000 Du        
   8589 ****        71.0000  16.7500  27.0000 Du        
   8590 ****        71.0000  16.7500  27.2500 Du        
   8591 ****        71.0000  16.7500  27.5000 Du        
   8592 ****        71.0000  16.7500  27.7500 Du        
   8593 ****        71.0000  16.7500  28.0000 Du        
   8594 ****        71.0000  16.7500  28.2500 Du        
   8595 ****        71.0000  16.7500  28.5000 Du        
   8596 ****        71.0000  16.7500  28.7500 Du        
   8597 ****        71.0000  17.0000  27.2500 Du        
   8598 ****        71.0000  17.0000  27.5000 Du        
   8599 ****        71.0000  17.0000  27.7500 Du        
   8600 ****        71.0000  17.0000  28.0000 Du        
   8601 ****        71.0000  17.0000  28.2500 Du        
   8602 ****        71.0000  17.0000  28.5000 Du        
   8603 ****        71.0000  17.0000  28.7500 Du        
   8604 ****        71.0000  17.2500  27.2500 Du        
   8605 ****        71.0000  17.2500  27.5000 Du        
   8606 ****        71.0000  17.2500  27.7500 Du        
   8607 ****        71.0000  17.2500  28.0000 Du        
   8608 ****        71.0000  17.2500  28.2500 Du        
   8609 ****        71.0000  17.2500  28.5000 Du        
   8610 ****        71.0000  17.2500  28.7500 Du        
   8611 ****        71.0000  17.5000  27.5000 Du        
   8612 ****        71.0000  17.5000  27.7500 Du        
   8613 ****        71.0000  17.5000  28.0000 Du        
   8614 ****        71.0000  17.5000  28.2500 Du        
   8615 ****        71.0000  17.5000  28.5000 Du        
   8616 ****        71.0000  17.5000  28.7500 Du        
   8617 ****        71.0000  17.7500  27.7500 Du        
   8618 ****        71.0000  17.7500  28.0000 Du        
   8619 ****        71.0000  17.7500  28.2500 Du        
   8620 ****        71.0000  17.7500  28.5000 Du        
   8621 ****        71.0000  18.0000  27.7500 Du        
   8622 ****        71.0000  18.0000  28.0000 Du        
   8623 ****        71.0000  18.0000  28.2500 Du        
   8624 ****        71.0000  18.0000  28.5000 Du        
   8625 ****        71.0000  18.2500  28.0000 Du        
   8626 ****        71.0000  18.2500  28.2500 Du        
   8627 ****        71.0000  18.2500  28.5000 Du        
   8628 ****        71.0000  18.5000  28.0000 Du        
   8629 ****        71.0000  18.5000  28.2500 Du        
   8630 ****        71.0000  18.5000  28.5000 Du        
   8631 ****        71.0000  18.7500  28.2500 Du        
   8632 ****        71.0000  18.7500  28.5000 Du        
   8633 ****        71.2500  11.2500  26.7500 Du        
   8634 ****        71.2500  11.2500  27.0000 Du        
   8635 ****        71.2500  11.2500  27.2500 Du        
   8636 ****        71.2500  11.5000  26.7500 Du        
   8637 ****        71.2500  11.5000  27.0000 Du        
   8638 ****        71.2500  11.5000  27.2500 Du        
   8639 ****        71.2500  11.5000  27.5000 Du        
   8640 ****        71.2500  11.7500  26.7500 Du        
   8641 ****        71.2500  11.7500  27.0000 Du        
   8642 ****        71.2500  11.7500  27.2500 Du        
   8643 ****        71.2500  11.7500  27.5000 Du        
   8644 ****        71.2500  12.0000  26.5000 Du        
   8645 ****        71.2500  12.0000  26.7500 Du        
   8646 ****        71.2500  12.0000  27.0000 Du        
   8647 ****        71.2500  12.0000  27.2500 Du        
   8648 ****        71.2500  12.0000  27.5000 Du        
   8649 ****        71.2500  12.0000  27.7500 Du        
   8650 ****        71.2500  12.2500  26.7500 Du        
   8651 ****        71.2500  12.2500  27.0000 Du        
   8652 ****        71.2500  12.2500  27.2500 Du        
   8653 ****        71.2500  12.2500  27.5000 Du        
   8654 ****        71.2500  12.2500  27.7500 Du        
   8655 ****        71.2500  12.2500  28.0000 Du        
   8656 ****        71.2500  12.5000  26.7500 Du        
   8657 ****        71.2500  12.5000  27.0000 Du        
   8658 ****        71.2500  12.5000  27.2500 Du        
   8659 ****        71.2500  12.5000  27.5000 Du        
   8660 ****        71.2500  12.5000  27.7500 Du        
   8661 ****        71.2500  12.5000  28.0000 Du        
   8662 ****        71.2500  12.7500  26.7500 Du        
   8663 ****        71.2500  12.7500  27.0000 Du        
   8664 ****        71.2500  12.7500  27.2500 Du        
   8665 ****        71.2500  12.7500  27.5000 Du        
   8666 ****        71.2500  12.7500  27.7500 Du        
   8667 ****        71.2500  12.7500  28.0000 Du        
   8668 ****        71.2500  12.7500  28.2500 Du        
   8669 ****        71.2500  13.0000  26.7500 Du        
   8670 ****        71.2500  13.0000  27.0000 Du        
   8671 ****        71.2500  13.0000  27.2500 Du        
   8672 ****        71.2500  13.0000  27.5000 Du        
   8673 ****        71.2500  13.0000  27.7500 Du        
   8674 ****        71.2500  13.0000  28.0000 Du        
   8675 ****        71.2500  13.0000  28.2500 Du        
   8676 ****        71.2500  13.2500  26.7500 Du        
   8677 ****        71.2500  13.2500  27.0000 Du        
   8678 ****        71.2500  13.2500  27.2500 Du        
   8679 ****        71.2500  13.2500  27.5000 Du        
   8680 ****        71.2500  13.2500  27.7500 Du        
   8681 ****        71.2500  13.2500  28.0000 Du        
   8682 ****        71.2500  13.2500  28.2500 Du        
   8683 ****        71.2500  13.5000  27.0000 Du        
   8684 ****        71.2500  13.5000  27.2500 Du        
   8685 ****        71.2500  13.5000  27.5000 Du        
   8686 ****        71.2500  13.5000  27.7500 Du        
   8687 ****        71.2500  13.5000  28.0000 Du        
   8688 ****        71.2500  13.7500  27.0000 Du        
   8689 ****        71.2500  13.7500  27.2500 Du        
   8690 ****        71.2500  13.7500  27.5000 Du        
   8691 ****        71.2500  13.7500  27.7500 Du        
   8692 ****        71.2500  13.7500  28.0000 Du        
   8693 ****        71.2500  14.0000  27.0000 Du        
   8694 ****        71.2500  14.0000  27.2500 Du        
   8695 ****        71.2500  14.0000  27.5000 Du        
   8696 ****        71.2500  14.0000  27.7500 Du        
   8697 ****        71.2500  14.2500  27.0000 Du        
   8698 ****        71.2500  14.2500  27.2500 Du        
   8699 ****        71.2500  14.2500  27.5000 Du        
   8700 ****        71.2500  14.2500  27.7500 Du        
   8701 ****        71.2500  14.5000  27.0000 Du        
   8702 ****        71.2500  14.5000  27.2500 Du        
   8703 ****        71.2500  14.5000  27.5000 Du        
   8704 ****        71.2500  14.5000  27.7500 Du        
   8705 ****        71.2500  14.7500  27.0000 Du        
   8706 ****        71.2500  14.7500  27.2500 Du        
   8707 ****        71.2500  14.7500  27.5000 Du        
   8708 ****        71.2500  14.7500  27.7500 Du        
   8709 ****        71.2500  15.0000  27.0000 Du        
   8710 ****        71.2500  15.0000  27.2500 Du        
   8711 ****        71.2500  15.0000  27.5000 Du        
   8712 ****        71.2500  15.0000  27.7500 Du        
   8713 ****        71.2500  15.2500  26.7500 Du        
   8714 ****        71.2500  15.2500  27.0000 Du        
   8715 ****        71.2500  15.2500  27.2500 Du        
   8716 ****        71.2500  15.2500  27.5000 Du        
   8717 ****        71.2500  15.2500  27.7500 Du        
   8718 ****        71.2500  15.5000  26.7500 Du        
   8719 ****        71.2500  15.5000  27.0000 Du        
   8720 ****        71.2500  15.5000  27.2500 Du        
   8721 ****        71.2500  15.5000  27.5000 Du        
   8722 ****        71.2500  15.5000  27.7500 Du        
   8723 ****        71.2500  15.7500  26.7500 Du        
   8724 ****        71.2500  15.7500  27.0000 Du        
   8725 ****        71.2500  15.7500  27.2500 Du        
   8726 ****        71.2500  15.7500  27.5000 Du        
   8727 ****        71.2500  15.7500  27.7500 Du        
   8728 ****        71.2500  15.7500  28.0000 Du        
   8729 ****        71.2500  16.0000  26.7500 Du        
   8730 ****        71.2500  16.0000  27.0000 Du        
   8731 ****        71.2500  16.0000  27.2500 Du        
   8732 ****        71.2500  16.0000  27.5000 Du        
   8733 ****        71.2500  16.0000  27.7500 Du        
   8734 ****        71.2500  16.0000  28.0000 Du        
   8735 ****        71.2500  16.2500  27.0000 Du        
   8736 ****        71.2500  16.2500  27.2500 Du        
   8737 ****        71.2500  16.2500  27.5000 Du        
   8738 ****        71.2500  16.2500  27.7500 Du        
   8739 ****        71.2500  16.2500  28.0000 Du        
   8740 ****        71.2500  16.2500  28.2500 Du        
   8741 ****        71.2500  16.5000  27.0000 Du        
   8742 ****        71.2500  16.5000  27.2500 Du        
   8743 ****        71.2500  16.5000  27.5000 Du        
   8744 ****        71.2500  16.5000  27.7500 Du        
   8745 ****        71.2500  16.5000  28.0000 Du        
   8746 ****        71.2500  16.5000  28.2500 Du        
   8747 ****        71.2500  16.5000  28.5000 Du        
   8748 ****        71.2500  16.7500  27.2500 Du        
   8749 ****        71.2500  16.7500  27.5000 Du        
   8750 ****        71.2500  16.7500  27.7500 Du        
   8751 ****        71.2500  16.7500  28.0000 Du        
   8752 ****        71.2500  16.7500  28.2500 Du        
   8753 ****        71.2500  16.7500  28.5000 Du        
   8754 ****        71.2500  17.0000  27.2500 Du        
   8755 ****        71.2500  17.0000  27.5000 Du        
   8756 ****        71.2500  17.0000  27.7500 Du        
   8757 ****        71.2500  17.0000  28.0000 Du        
   8758 ****        71.2500  17.0000  28.2500 Du        
   8759 ****        71.2500  17.0000  28.5000 Du        
   8760 ****        71.2500  17.0000  28.7500 Du        
   8761 ****        71.2500  17.2500  27.2500 Du        
   8762 ****        71.2500  17.2500  27.5000 Du        
   8763 ****        71.2500  17.2500  27.7500 Du        
   8764 ****        71.2500  17.2500  28.0000 Du        
   8765 ****        71.2500  17.2500  28.2500 Du        
   8766 ****        71.2500  17.2500  28.5000 Du        
   8767 ****        71.2500  17.2500  28.7500 Du        
   8768 ****        71.2500  17.5000  27.5000 Du        
   8769 ****        71.2500  17.5000  27.7500 Du        
   8770 ****        71.2500  17.5000  28.0000 Du        
   8771 ****        71.2500  17.5000  28.2500 Du        
   8772 ****        71.2500  17.5000  28.5000 Du        
   8773 ****        71.2500  17.7500  27.7500 Du        
   8774 ****        71.2500  17.7500  28.0000 Du        
   8775 ****        71.2500  17.7500  28.2500 Du        
   8776 ****        71.2500  17.7500  28.5000 Du        
   8777 ****        71.2500  18.0000  27.7500 Du        
   8778 ****        71.2500  18.0000  28.0000 Du        
   8779 ****        71.2500  18.0000  28.2500 Du        
   8780 ****        71.2500  18.0000  28.5000 Du        
   8781 ****        71.2500  18.2500  28.0000 Du        
   8782 ****        71.2500  18.2500  28.2500 Du        
   8783 ****        71.2500  18.2500  28.5000 Du        
   8784 ****        71.2500  18.5000  28.0000 Du        
   8785 ****        71.2500  18.5000  28.2500 Du        
   8786 ****        71.2500  18.5000  28.5000 Du        
   8787 ****        71.2500  18.7500  28.2500 Du        
   8788 ****        71.2500  18.7500  28.5000 Du        
   8789 ****        71.5000  11.2500  26.7500 Du        
   8790 ****        71.5000  11.2500  27.0000 Du        
   8791 ****        71.5000  11.2500  27.2500 Du        
   8792 ****        71.5000  11.5000  26.7500 Du        
   8793 ****        71.5000  11.5000  27.0000 Du        
   8794 ****        71.5000  11.5000  27.2500 Du        
   8795 ****        71.5000  11.7500  26.5000 Du        
   8796 ****        71.5000  11.7500  26.7500 Du        
   8797 ****        71.5000  11.7500  27.0000 Du        
   8798 ****        71.5000  11.7500  27.2500 Du        
   8799 ****        71.5000  11.7500  27.5000 Du        
   8800 ****        71.5000  12.0000  26.5000 Du        
   8801 ****        71.5000  12.0000  26.7500 Du        
   8802 ****        71.5000  12.0000  27.0000 Du        
   8803 ****        71.5000  12.0000  27.2500 Du        
   8804 ****        71.5000  12.0000  27.5000 Du        
   8805 ****        71.5000  12.2500  26.5000 Du        
   8806 ****        71.5000  12.2500  26.7500 Du        
   8807 ****        71.5000  12.2500  27.0000 Du        
   8808 ****        71.5000  12.2500  27.2500 Du        
   8809 ****        71.5000  12.2500  27.5000 Du        
   8810 ****        71.5000  12.2500  27.7500 Du        
   8811 ****        71.5000  12.5000  26.7500 Du        
   8812 ****        71.5000  12.5000  27.0000 Du        
   8813 ****        71.5000  12.5000  27.2500 Du        
   8814 ****        71.5000  12.5000  27.5000 Du        
   8815 ****        71.5000  12.5000  27.7500 Du        
   8816 ****        71.5000  12.5000  28.0000 Du        
   8817 ****        71.5000  12.7500  26.7500 Du        
   8818 ****        71.5000  12.7500  27.0000 Du        
   8819 ****        71.5000  12.7500  27.2500 Du        
   8820 ****        71.5000  12.7500  27.5000 Du        
   8821 ****        71.5000  12.7500  27.7500 Du        
   8822 ****        71.5000  12.7500  28.0000 Du        
   8823 ****        71.5000  13.0000  26.7500 Du        
   8824 ****        71.5000  13.0000  27.0000 Du        
   8825 ****        71.5000  13.0000  27.2500 Du        
   8826 ****        71.5000  13.0000  27.5000 Du        
   8827 ****        71.5000  13.0000  27.7500 Du        
   8828 ****        71.5000  13.0000  28.0000 Du        
   8829 ****        71.5000  13.0000  28.2500 Du        
   8830 ****        71.5000  13.2500  26.7500 Du        
   8831 ****        71.5000  13.2500  27.0000 Du        
   8832 ****        71.5000  13.2500  27.2500 Du        
   8833 ****        71.5000  13.2500  27.5000 Du        
   8834 ****        71.5000  13.2500  27.7500 Du        
   8835 ****        71.5000  13.2500  28.0000 Du        
   8836 ****        71.5000  13.5000  27.0000 Du        
   8837 ****        71.5000  13.5000  27.2500 Du        
   8838 ****        71.5000  13.5000  27.5000 Du        
   8839 ****        71.5000  13.5000  27.7500 Du        
   8840 ****        71.5000  13.5000  28.0000 Du        
   8841 ****        71.5000  13.7500  27.0000 Du        
   8842 ****        71.5000  13.7500  27.2500 Du        
   8843 ****        71.5000  13.7500  27.5000 Du        
   8844 ****        71.5000  13.7500  27.7500 Du        
   8845 ****        71.5000  14.0000  27.2500 Du        
   8846 ****        71.5000  14.0000  27.5000 Du        
   8847 ****        71.5000  14.0000  27.7500 Du        
   8848 ****        71.5000  14.2500  27.2500 Du        
   8849 ****        71.5000  14.2500  27.5000 Du        
   8850 ****        71.5000  15.2500  27.2500 Du        
   8851 ****        71.5000  15.5000  27.2500 Du        
   8852 ****        71.5000  15.5000  27.5000 Du        
   8853 ****        71.5000  15.7500  27.0000 Du        
   8854 ****        71.5000  15.7500  27.2500 Du        
   8855 ****        71.5000  15.7500  27.5000 Du        
   8856 ****        71.5000  16.0000  27.0000 Du        
   8857 ****        71.5000  16.0000  27.2500 Du        
   8858 ****        71.5000  16.0000  27.5000 Du        
   8859 ****        71.5000  16.0000  27.7500 Du        
   8860 ****        71.5000  16.2500  27.0000 Du        
   8861 ****        71.5000  16.2500  27.2500 Du        
   8862 ****        71.5000  16.2500  27.5000 Du        
   8863 ****        71.5000  16.2500  27.7500 Du        
   8864 ****        71.5000  16.2500  28.0000 Du        
   8865 ****        71.5000  16.5000  27.2500 Du        
   8866 ****        71.5000  16.5000  27.5000 Du        
   8867 ****        71.5000  16.5000  27.7500 Du        
   8868 ****        71.5000  16.5000  28.0000 Du        
   8869 ****        71.5000  16.5000  28.2500 Du        
   8870 ****        71.5000  16.7500  27.2500 Du        
   8871 ****        71.5000  16.7500  27.5000 Du        
   8872 ****        71.5000  16.7500  27.7500 Du        
   8873 ****        71.5000  16.7500  28.0000 Du        
   8874 ****        71.5000  16.7500  28.2500 Du        
   8875 ****        71.5000  17.0000  27.2500 Du        
   8876 ****        71.5000  17.0000  27.5000 Du        
   8877 ****        71.5000  17.0000  27.7500 Du        
   8878 ****        71.5000  17.0000  28.0000 Du        
   8879 ****        71.5000  17.0000  28.2500 Du        
   8880 ****        71.5000  17.0000  28.5000 Du        
   8881 ****        71.5000  17.2500  27.5000 Du        
   8882 ****        71.5000  17.2500  27.7500 Du        
   8883 ****        71.5000  17.2500  28.0000 Du        
   8884 ****        71.5000  17.2500  28.2500 Du        
   8885 ****        71.5000  17.2500  28.5000 Du        
   8886 ****        71.5000  17.5000  27.5000 Du        
   8887 ****        71.5000  17.5000  27.7500 Du        
   8888 ****        71.5000  17.5000  28.0000 Du        
   8889 ****        71.5000  17.5000  28.2500 Du        
   8890 ****        71.5000  17.5000  28.5000 Du        
   8891 ****        71.5000  17.7500  27.7500 Du        
   8892 ****        71.5000  17.7500  28.0000 Du        
   8893 ****        71.5000  17.7500  28.2500 Du        
   8894 ****        71.5000  17.7500  28.5000 Du        
   8895 ****        71.5000  18.0000  27.7500 Du        
   8896 ****        71.5000  18.0000  28.0000 Du        
   8897 ****        71.5000  18.0000  28.2500 Du        
   8898 ****        71.5000  18.0000  28.5000 Du        
   8899 ****        71.5000  18.2500  28.0000 Du        
   8900 ****        71.5000  18.2500  28.2500 Du        
   8901 ****        71.5000  18.2500  28.5000 Du        
   8902 ****        71.5000  18.5000  28.0000 Du        
   8903 ****        71.5000  18.5000  28.2500 Du        
   8904 ****        71.5000  18.5000  28.5000 Du        
   8905 ****        71.5000  18.7500  28.2500 Du        
   8906 ****        71.5000  18.7500  28.5000 Du        
   8907 ****        71.7500  11.0000  27.0000 Du        
   8908 ****        71.7500  11.2500  26.7500 Du        
   8909 ****        71.7500  11.2500  27.0000 Du        
   8910 ****        71.7500  11.2500  27.2500 Du        
   8911 ****        71.7500  11.5000  26.7500 Du        
   8912 ****        71.7500  11.5000  27.0000 Du        
   8913 ****        71.7500  11.5000  27.2500 Du        
   8914 ****        71.7500  11.7500  26.7500 Du        
   8915 ****        71.7500  11.7500  27.0000 Du        
   8916 ****        71.7500  11.7500  27.2500 Du        
   8917 ****        71.7500  11.7500  27.5000 Du        
   8918 ****        71.7500  12.0000  26.5000 Du        
   8919 ****        71.7500  12.0000  26.7500 Du        
   8920 ****        71.7500  12.0000  27.0000 Du        
   8921 ****        71.7500  12.0000  27.2500 Du        
   8922 ****        71.7500  12.0000  27.5000 Du        
   8923 ****        71.7500  12.2500  26.5000 Du        
   8924 ****        71.7500  12.2500  26.7500 Du        
   8925 ****        71.7500  12.2500  27.0000 Du        
   8926 ****        71.7500  12.2500  27.2500 Du        
   8927 ****        71.7500  12.2500  27.5000 Du        
   8928 ****        71.7500  12.2500  27.7500 Du        
   8929 ****        71.7500  12.5000  26.7500 Du        
   8930 ****        71.7500  12.5000  27.0000 Du        
   8931 ****        71.7500  12.5000  27.2500 Du        
   8932 ****        71.7500  12.5000  27.5000 Du        
   8933 ****        71.7500  12.5000  27.7500 Du        
   8934 ****        71.7500  12.7500  26.7500 Du        
   8935 ****        71.7500  12.7500  27.0000 Du        
   8936 ****        71.7500  12.7500  27.2500 Du        
   8937 ****        71.7500  12.7500  27.5000 Du        
   8938 ****        71.7500  12.7500  27.7500 Du        
   8939 ****        71.7500  12.7500  28.0000 Du        
   8940 ****        71.7500  13.0000  26.7500 Du        
   8941 ****        71.7500  13.0000  27.0000 Du        
   8942 ****        71.7500  13.0000  27.2500 Du        
   8943 ****        71.7500  13.0000  27.5000 Du        
   8944 ****        71.7500  13.0000  27.7500 Du        
   8945 ****        71.7500  13.0000  28.0000 Du        
   8946 ****        71.7500  13.2500  27.0000 Du        
   8947 ****        71.7500  13.2500  27.2500 Du        
   8948 ****        71.7500  13.2500  27.5000 Du        
   8949 ****        71.7500  13.2500  27.7500 Du        
   8950 ****        71.7500  13.5000  27.2500 Du        
   8951 ****        71.7500  13.5000  27.5000 Du        
   8952 ****        71.7500  13.5000  27.7500 Du        
   8953 ****        71.7500  13.7500  27.5000 Du        
   8954 ****        71.7500  16.5000  27.7500 Du        
   8955 ****        71.7500  16.7500  27.5000 Du        
   8956 ****        71.7500  16.7500  27.7500 Du        
   8957 ****        71.7500  16.7500  28.0000 Du        
   8958 ****        71.7500  17.0000  27.5000 Du        
   8959 ****        71.7500  17.0000  27.7500 Du        
   8960 ****        71.7500  17.0000  28.0000 Du        
   8961 ****        71.7500  17.0000  28.2500 Du        
   8962 ****        71.7500  17.2500  27.5000 Du        
   8963 ****        71.7500  17.2500  27.7500 Du        
   8964 ****        71.7500  17.2500  28.0000 Du        
   8965 ****        71.7500  17.2500  28.2500 Du        
   8966 ****        71.7500  17.2500  28.5000 Du        
   8967 ****        71.7500  17.5000  27.5000 Du        
   8968 ****        71.7500  17.5000  27.7500 Du        
   8969 ****        71.7500  17.5000  28.0000 Du        
   8970 ****        71.7500  17.5000  28.2500 Du        
   8971 ****        71.7500  17.5000  28.5000 Du        
   8972 ****        71.7500  17.7500  27.7500 Du        
   8973 ****        71.7500  17.7500  28.0000 Du        
   8974 ****        71.7500  17.7500  28.2500 Du        
   8975 ****        71.7500  17.7500  28.5000 Du        
   8976 ****        71.7500  18.0000  27.7500 Du        
   8977 ****        71.7500  18.0000  28.0000 Du        
   8978 ****        71.7500  18.0000  28.2500 Du        
   8979 ****        71.7500  18.0000  28.5000 Du        
   8980 ****        71.7500  18.2500  27.7500 Du        
   8981 ****        71.7500  18.2500  28.0000 Du        
   8982 ****        71.7500  18.2500  28.2500 Du        
   8983 ****        71.7500  18.2500  28.5000 Du        
   8984 ****        71.7500  18.5000  28.0000 Du        
   8985 ****        71.7500  18.5000  28.2500 Du        
   8986 ****        71.7500  18.5000  28.5000 Du        
   8987 ****        71.7500  18.7500  28.2500 Du        
   8988 ****        71.7500  18.7500  28.5000 Du        
   8989 ****        72.0000  11.0000  27.0000 Du        
   8990 ****        72.0000  11.2500  26.7500 Du        
   8991 ****        72.0000  11.2500  27.0000 Du        
   8992 ****        72.0000  11.2500  27.2500 Du        
   8993 ****        72.0000  11.5000  26.7500 Du        
   8994 ****        72.0000  11.5000  27.0000 Du        
   8995 ****        72.0000  11.5000  27.2500 Du        
   8996 ****        72.0000  11.7500  26.7500 Du        
   8997 ****        72.0000  11.7500  27.0000 Du        
   8998 ****        72.0000  11.7500  27.2500 Du        
   8999 ****        72.0000  12.0000  26.7500 Du        
   9000 ****        72.0000  12.0000  27.0000 Du        
   9001 ****        72.0000  12.0000  27.2500 Du        
   9002 ****        72.0000  12.0000  27.5000 Du        
   9003 ****        72.0000  12.2500  26.7500 Du        
   9004 ****        72.0000  12.2500  27.0000 Du        
   9005 ****        72.0000  12.2500  27.2500 Du        
   9006 ****        72.0000  12.2500  27.5000 Du        
   9007 ****        72.0000  12.5000  26.7500 Du        
   9008 ****        72.0000  12.5000  27.0000 Du        
   9009 ****        72.0000  12.5000  27.2500 Du        
   9010 ****        72.0000  12.5000  27.5000 Du        
   9011 ****        72.0000  12.5000  27.7500 Du        
   9012 ****        72.0000  12.7500  26.7500 Du        
   9013 ****        72.0000  12.7500  27.0000 Du        
   9014 ****        72.0000  12.7500  27.2500 Du        
   9015 ****        72.0000  12.7500  27.5000 Du        
   9016 ****        72.0000  12.7500  27.7500 Du        
   9017 ****        72.0000  13.0000  27.0000 Du        
   9018 ****        72.0000  13.0000  27.2500 Du        
   9019 ****        72.0000  13.0000  27.5000 Du        
   9020 ****        72.0000  13.0000  27.7500 Du        
   9021 ****        72.0000  13.2500  27.2500 Du        
   9022 ****        72.0000  13.2500  27.5000 Du        
   9023 ****        72.0000  17.2500  27.7500 Du        
   9024 ****        72.0000  17.2500  28.0000 Du        
   9025 ****        72.0000  17.5000  27.7500 Du        
   9026 ****        72.0000  17.5000  28.0000 Du        
   9027 ****        72.0000  17.5000  28.2500 Du        
   9028 ****        72.0000  17.7500  27.7500 Du        
   9029 ****        72.0000  17.7500  28.0000 Du        
   9030 ****        72.0000  17.7500  28.2500 Du        
   9031 ****        72.0000  17.7500  28.5000 Du        
   9032 ****        72.0000  18.0000  27.7500 Du        
   9033 ****        72.0000  18.0000  28.0000 Du        
   9034 ****        72.0000  18.0000  28.2500 Du        
   9035 ****        72.0000  18.0000  28.5000 Du        
   9036 ****        72.0000  18.2500  27.7500 Du        
   9037 ****        72.0000  18.2500  28.0000 Du        
   9038 ****        72.0000  18.2500  28.2500 Du        
   9039 ****        72.0000  18.2500  28.5000 Du        
   9040 ****        72.0000  18.5000  28.0000 Du        
   9041 ****        72.0000  18.5000  28.2500 Du        
   9042 ****        72.0000  18.5000  28.5000 Du        
   9043 ****        72.0000  18.7500  28.2500 Du        
   9044 ****        72.0000  18.7500  28.5000 Du        
   9045 ****        72.2500  11.2500  26.7500 Du        
   9046 ****        72.2500  11.2500  27.0000 Du        
   9047 ****        72.2500  11.5000  26.7500 Du        
   9048 ****        72.2500  11.5000  27.0000 Du        
   9049 ****        72.2500  11.5000  27.2500 Du        
   9050 ****        72.2500  11.7500  26.7500 Du        
   9051 ****        72.2500  11.7500  27.0000 Du        
   9052 ****        72.2500  11.7500  27.2500 Du        
   9053 ****        72.2500  12.0000  26.5000 Du        
   9054 ****        72.2500  12.0000  26.7500 Du        
   9055 ****        72.2500  12.0000  27.0000 Du        
   9056 ****        72.2500  12.0000  27.2500 Du        
   9057 ****        72.2500  12.2500  26.7500 Du        
   9058 ****        72.2500  12.2500  27.0000 Du        
   9059 ****        72.2500  12.2500  27.2500 Du        
   9060 ****        72.2500  12.2500  27.5000 Du        
   9061 ****        72.2500  12.5000  26.7500 Du        
   9062 ****        72.2500  12.5000  27.0000 Du        
   9063 ****        72.2500  12.5000  27.2500 Du        
   9064 ****        72.2500  12.5000  27.5000 Du        
   9065 ****        72.2500  12.7500  27.0000 Du        
   9066 ****        72.2500  12.7500  27.2500 Du        
   9067 ****        72.2500  12.7500  27.5000 Du        
   9068 ****        72.2500  12.7500  27.7500 Du        
   9069 ****        72.2500  13.0000  27.2500 Du        
   9070 ****        72.2500  13.0000  27.5000 Du        
   9071 ****        72.2500  17.7500  28.0000 Du        
   9072 ****        72.2500  18.0000  27.7500 Du        
   9073 ****        72.2500  18.0000  28.0000 Du        
   9074 ****        72.2500  18.0000  28.2500 Du        
   9075 ****        72.2500  18.2500  27.7500 Du        
   9076 ****        72.2500  18.2500  28.0000 Du        
   9077 ****        72.2500  18.2500  28.2500 Du        
   9078 ****        72.2500  18.5000  28.0000 Du        
   9079 ****        72.2500  18.5000  28.2500 Du        
   9080 ****        72.2500  18.5000  28.5000 Du        
   9081 ****        72.5000  11.5000  26.7500 Du        
   9082 ****        72.5000  11.5000  27.0000 Du        
   9083 ****        72.5000  11.7500  26.7500 Du        
   9084 ****        72.5000  11.7500  27.0000 Du        
   9085 ****        72.5000  11.7500  27.2500 Du        
   9086 ****        72.5000  12.0000  26.7500 Du        
   9087 ****        72.5000  12.0000  27.0000 Du        
   9088 ****        72.5000  12.0000  27.2500 Du        
   9089 ****        72.5000  12.2500  26.7500 Du        
   9090 ****        72.5000  12.2500  27.0000 Du        
   9091 ****        72.5000  12.2500  27.2500 Du        
   9092 ****        72.5000  12.2500  27.5000 Du        
   9093 ****        72.5000  12.5000  27.0000 Du        
   9094 ****        72.5000  12.5000  27.2500 Du        
   9095 ****        72.5000  12.5000  27.5000 Du        
   9096 ****        72.7500  11.5000  27.0000 Du        
   9097 ****        72.7500  11.7500  26.7500 Du        
   9098 ****        72.7500  11.7500  27.0000 Du        
   9099 ****        72.7500  11.7500  27.2500 Du        
   9100 ****        72.7500  12.0000  26.7500 Du        
   9101 ****        72.7500  12.0000  27.0000 Du        
   9102 ****        72.7500  12.0000  27.2500 Du        
   9103 ****        72.7500  12.2500  26.7500 Du        
   9104 ****        72.7500  12.2500  27.0000 Du        
   9105 ****        72.7500  12.2500  27.2500 Du        
   9106 ****        72.7500  12.5000  27.2500 Du        
   9107 ****        73.0000  11.7500  26.7500 Du        
   9108 ****        73.0000  11.7500  27.0000 Du        
   9109 ****        73.0000  11.7500  27.2500 Du        
   9110 ****        73.0000  12.0000  26.7500 Du        
   9111 ****        73.0000  12.0000  27.0000 Du        
   9112 ****        73.0000  12.0000  27.2500 Du        
   9113 ****        73.0000  12.2500  27.0000 Du        
   9114 ****        73.0000  12.2500  27.2500 Du        
   9115 ****        73.2500  11.7500  26.7500 Du        
   9116 ****        73.2500  11.7500  27.0000 Du        
   9117 ****        73.2500  12.0000  26.7500 Du        
   9118 ****        73.2500  12.0000  27.0000 Du        
   9119 ****        73.2500  12.0000  27.2500 Du        
   9120 ****        73.2500  12.2500  27.0000 Du        
   9121 ****        73.2500  12.2500  27.2500 Du        
   9122 ****        73.5000  12.0000  27.0000 Du        
   9123 ****        73.5000  12.0000  27.2500 Du        
