****|SAP-35|sdf|1|dock4
  -GOLD-   9 823 9 73D 1   1.00000     0.00000

 44 47  0  0  0  0  0  0  0  0  1 V2000
   62.7363   24.7956   23.1750 S   0  0  0  0  0  0  0  0  0  0  0  0
   63.4327   23.6713   24.2801 C   0  0  0  0  0  0  0  0  0  0  0  0
   64.4490   22.9267   23.6781 C   0  0  0  0  0  0  0  0  0  0  0  0
   64.6223   23.3006   22.3029 C   0  0  0  0  0  0  0  0  0  0  0  0
   63.7588   24.2947   21.9059 C   0  0  0  0  0  0  0  0  0  0  0  0
   63.6784   24.7515   20.9291 H   0  0  0  0  0  0  0  0  0  0  0  0
   65.3489   22.8507   21.6381 H   0  0  0  0  0  0  0  0  0  0  0  0
   65.1229   21.9570   24.4609 C   0  0  0  0  0  0  0  0  0  0  0  0
   64.7695   21.7355   25.8050 C   0  0  0  0  0  0  0  0  0  0  0  0
   63.7486   22.5006   26.3712 C   0  0  0  0  0  0  0  0  0  0  0  0
   63.0753   23.4736   25.6263 C   0  0  0  0  0  0  0  0  0  0  0  0
   62.2828   24.0621   26.0802 H   0  0  0  0  0  0  0  0  0  0  0  0
   63.4568   22.3477   27.4091 H   0  0  0  0  0  0  0  0  0  0  0  0
   65.4788   20.6847   26.6262 C   0  0  0  0  0  0  0  0  0  0  0  0
   64.9837   19.0065   26.1368 S   0  0  0  0  0  0  0  0  0  0  0  0
   64.9421   18.2569   27.6934 C   0  0  0  0  0  0  0  0  0  0  0  0
   63.7010   17.9747   28.1142 N   0  0  0  0  0  0  0  0  0  0  0  0
   63.5209   17.3738   29.3135 C   0  0  0  0  0  0  0  0  0  0  0  0
   62.3870   17.0723   29.6696 O   0  0  0  0  0  0  0  0  0  0  0  0
   64.6218   17.1391   30.0741 N   0  0  0  0  0  0  0  0  0  0  0  0
   65.7730   17.4577   29.6020 C   0  0  0  0  0  0  0  0  0  0  0  0
   67.1756   17.1747   30.6076 S   0  0  0  0  0  0  0  0  0  0  0  0
   67.3927   15.4264   30.1857 C   0  0  0  0  0  0  0  0  0  0  0  0
   68.6288   15.2010   29.3511 C   0  0  0  0  0  0  0  0  0  0  0  0
   69.4202   16.2870   28.9534 C   0  0  0  0  0  0  0  0  0  0  0  0
   70.5585   16.0746   28.1841 C   0  0  0  0  0  0  0  0  0  0  0  0
   71.2984   17.1223   27.7995 F   0  0  0  0  0  0  0  0  0  0  0  0
   70.9385   14.7945   27.8016 C   0  0  0  0  0  0  0  0  0  0  0  0
   70.1731   13.6889   28.1989 C   0  0  0  0  0  0  0  0  0  0  0  0
   69.0180   13.9042   28.9734 C   0  0  0  0  0  0  0  0  0  0  0  0
   68.4172   13.0501   29.2884 H   0  0  0  0  0  0  0  0  0  0  0  0
   70.5839   12.3010   27.7750 C   0  0  0  0  0  0  0  0  0  0  0  0
   69.7591   11.3357   28.2664 F   0  0  0  0  0  0  0  0  0  0  0  0
   70.5974   12.1283   26.4240 F   0  0  0  0  0  0  0  0  0  0  0  0
   71.8350   11.9795   28.2047 F   0  0  0  0  0  0  0  0  0  0  0  0
   71.8336   14.6674   27.1971 H   0  0  0  0  0  0  0  0  0  0  0  0
   69.1610   17.3043   29.2361 H   0  0  0  0  0  0  0  0  0  0  0  0
   66.5158   15.0618   29.6375 H   0  0  0  0  0  0  0  0  0  0  0  0
   67.4519   14.8364   31.1079 H   0  0  0  0  0  0  0  0  0  0  0  0
   65.9939   18.0194   28.3824 N   0  0  0  0  0  0  0  0  0  0  0  0
   62.8903   18.1658   27.5478 H   0  0  0  0  0  0  0  0  0  0  0  0
   66.5620   20.7966   26.4988 H   0  0  0  0  0  0  0  0  0  0  0  0
   65.2631   20.8377   27.6893 H   0  0  0  0  0  0  0  0  0  0  0  0
   65.9143   21.3688   24.0015 H   0  0  0  0  0  0  0  0  0  0  0  0
  1  2  1  0  0  0  0
  1  5  1  0  0  0  0
  2  3  2  0  0  0  0
  2 11  1  0  0  0  0
  3  4  1  0  0  0  0
  3  8  1  0  0  0  0
  4  5  2  0  0  0  0
  4  7  1  0  0  0  0
  5  6  1  0  0  0  0
  8  9  2  0  0  0  0
  8 44  1  0  0  0  0
  9 10  1  0  0  0  0
  9 14  1  0  0  0  0
 10 11  2  0  0  0  0
 10 13  1  0  0  0  0
 11 12  1  0  0  0  0
 14 15  1  0  0  0  0
 14 42  1  0  0  0  0
 14 43  1  0  0  0  0
 15 16  1  0  0  0  0
 16 17  1  0  0  0  0
 16 40  2  0  0  0  0
 17 18  1  0  0  0  0
 17 41  1  0  0  0  0
 18 19  2  0  0  0  0
 18 20  1  0  0  0  0
 20 21  2  0  0  0  0
 21 22  1  0  0  0  0
 21 40  1  0  0  0  0
 22 23  1  0  0  0  0
 23 24  1  0  0  0  0
 23 38  1  0  0  0  0
 23 39  1  0  0  0  0
 24 25  2  0  0  0  0
 24 30  1  0  0  0  0
 25 26  1  0  0  0  0
 25 37  1  0  0  0  0
 26 27  1  0  0  0  0
 26 28  2  0  0  0  0
 28 29  1  0  0  0  0
 28 36  1  0  0  0  0
 29 30  2  0  0  0  0
 29 32  1  0  0  0  0
 30 31  1  0  0  0  0
 32 33  1  0  0  0  0
 32 34  1  0  0  0  0
 32 35  1  0  0  0  0
M  END
> <Gold.Goldscore.Fitness>
66.0202

> <Gold.Goldscore.External.HBond>
7.1318

> <Gold.Protein.ActiveResidues>
 GLU87   ILE88   VAL90   ASN91   ALA92   ASP94   ASN95   ARG98   ILE118  ASN120 
 LYS123  GLY124  ILE125  ILE141  PHE142  THR147  SER148  SER149  ASN150  LYS157 
 THR159  GLY160  GLY161  ARG162  ASN163  GLY164  TYR165  GLY166  ALA167  LYS168 
 THR215  ILE217  GLN376  ILE33   TYR34   MG903  

> <Gold.Protein.RotatedWaterAtoms>
   32.4470    2.9410   36.3270 O.3 0  0  0  0  0  0  0  0  0  0  0  0  # atno 1    bound_to 2    3    AM1 OFF
   31.8359    3.0941   37.0946 H   0  0  0  0  0  0  0  0  0  0  0  0  # atno 2    bound_to 1    AM1 OFF
   31.9233    2.6242   35.5451 H   0  0  0  0  0  0  0  0  0  0  0  0  # atno 3    bound_to 1    AM1 OFF
   33.1269    2.2507   36.5746 LP  0  0  0  0  0  0  0  0  0  0  0  0  # atno 4    bound_to 1    AM1 OFF
   32.9099    3.7962   36.0938 LP  0  0  0  0  0  0  0  0  0  0  0  0  # atno 5    boun

> <Gold.Goldscore.Internal.HBond>
0.0

> <Gold.Goldscore.Internal.Torsion.Weighted>
-3.561

> <Gold.Protein.RotatedTorsions>
[ 7484 1497 1496 1493 ] final -108.15 input   60.00 | X-H torsion
[ 9179 2997 2996 2994 ] final  -52.84 input   60.00 | X-H torsion
[ 6913  975  974  971 ] final  -82.68 input   60.00 | X-H torsion
[ 6967 1046 1045 1044 ] final  -95.30 input   60.00 | X-H torsion
[ 6909  969  968  965 ] final   98.88 input   59.99 | X-H torsion

> <Gold.Goldscore.Constraint.Score>
0.0

> <Gold.Id.Protein>
1ZXM|1ZXM_protein|mol2

> <Gold.Protein.RotatedAtoms>
   41.4288   -2.0685   38.3092 H   0  0  0  0  0  0  0  0  0  0  0  0  # atno 6909 bound_to 969 
   37.9862   -3.8673   40.5387 H   0  0  0  0  0  0  0  0  0  0  0  0  # atno 6913 bound_to 975 
   40.2006   -9.0468   40.8017 H   0  0  0  0  0  0  0  0  0  0  0  0  # atno 6967 bound_to 1046
   39.1096   -8.3546   39.7634 H   0  0  0  0  0  0  0  0  0  0  0  0  # atno 6968 bound_to 1046
   38.5752   -9.1830   41.0960 H   0  0  0  0  0  0  0  0  0  0  0  0  # atno 6969 bound_to 1046
   28.1768    0.0826   41.7

> <Gold.Version>
5.3.0

> <Gold.Goldscore.Internal.Correction>
4.3684

> <Gold.Goldscore.Internal.Vdw>
0.6917

> <Gold.Goldscore.Internal.Vdw.Weighted>
0.6917

> <Gold.Goldscore.External.HBond.Weighted>
7.1318

> <Gold.Goldscore.External.Vdw.Weighted>
71.1262

> <Gold.Goldscore.Internal.HBond.Weighted>
0.0

> <Gold.Goldscore.Hbonds>
donor molecule, donor type, donor heavy atom, donor atom, acceptor molecule, acceptor atom, score
      P1  H   758  6690      AM2     1  0.87
      L1  H     9    34       P1   757  0.78
     AM2  H     1     2       P1   774  0.92
     AM2  H     1     3       P1  1497  0.99

> <Gold.Goldscore.External.Vdw>
51.7282

> <Gold.Goldscore.Internal.Torsion>
-3.561

> <Gold.Goldscore.Internal.Correction.Weighted>
4.3684

> <Gold.Goldscore.SBar>
-5.0

> <Gold.Version>
5.3.0

> <Gold.Id.Protein>
1ZXM|1ZXM_protein|mol2

> <Gold.ASP.Fitness>
38.9088

> <Gold.ASP.ASP>
41.7300

> <Gold.ASP.Map>
-208.6500

> <Gold.ASP.DEClash>
1.6923

> <Gold.ASP.DEInternal>
1.1289

> <Gold.ASP.Internal.Correction>
0.0813

> <Gold.Protein.RotatedTorsions>
[ 8550 3921 3920 3917 ] final  129.68 input   60.00 | X-H torsion
[ 8556 3927 3926 3923 ] final  -35.76 input   60.00 | X-H torsion
[ 8545 3914 3913 3910 ] final -149.59 input   60.00 | X-H torsion
[ 9505   53   52   50 ] final   88.10 input   60.00 | X-H torsion
[ 11670 4448 4447 4444 ] final  -91.67 input   60.00 | X-H torsion
[ 8370 4172 4171 4168 ] final  -49.45 input   60.00 | X-H torsion
[ 8570 3947 3946 3944 ] final   10.89 input   60.00 | X-H torsion

> <Gold.Protein.ActiveResidues>
 ILE33   TYR34   GLU87   ILE88   VAL90   ASN91   ALA92   ASP94   ASN95   ARG98  
 ILE118  ASN120  LYS123  GLY124  ILE125  ILE141  PHE142  THR147  SER148  SER149 
 ASN150  TYR151  GLY160  GLY161  ARG162  ASN163  GLY164  TYR165  GLY166  ALA167 
 LYS168  LEU169  THR181  THR215  ILE217  ILE317  GLN376  LYS378  MG904  

> <Gold.Protein.RotatedAtoms>
   75.5033   18.7470   32.3057 H   0  0  0  0  0  0  0  0  0  0  0  0  # atno 8370 bound_to 4172
   62.0098   14.4723   37.1028 H   0  0  0  0  0  0  0  0  0  0  0  0  # atno 8545 bound_to 3914
   59.6115   17.1836   29.4007 H   0  0  0  0  0  0  0  0  0  0  0  0  # atno 8550 bound_to 3921
   63.0084   19.8234   29.1019 H   0  0  0  0  0  0  0  0  0  0  0  0  # atno 8556 bound_to 3927
   56.0175   15.1009   32.5848 H   0  0  0  0  0  0  0  0  0  0  0  0  # atno 8570 bound_to 3947
   67.4360   22.7846   30.6454 H   0  0  0  0  0  0  0  0  0  0  0  0  # atno 9505 bound_to 53  
   74.0500   16.7996   30.7045 H   0  0  0  0  0  0  0  0  0  0  0  0  # atno 11670 bound_to 4448
   60.5509   18.4075   29.9178 LP  0  0  0  0  0  0  0  0  0  0  0  0  # atno 11896 bound_to 3921
   58.9356   18.6113   29.7916 LP  0  0  0  0  0  0  0  0  0  0  0  0  # atno 11897 bound_to 3921
   64.4370   20.5988   29.0247 LP  0  0  0  0  0  0  0  0  0  0  0  0  # atno 11898 bound_to 3927
   63.1619   21.1427   28.1616 LP  0  0  0  0  0  0  0  0  0  0  0  0  # atno 11899 bound_to 3927
   62.2802   14.8075   35.5336 LP  0  0  0  0  0  0  0  0  0  0  0  0  # atno 11904 bound_to 3914
   60.8514   14.1695   36.0009 LP  0  0  0  0  0  0  0  0  0  0  0  0  # atno 11905 bound_to 3914
   68.1867   21.4999   31.3041 LP  0  0  0  0  0  0  0  0  0  0  0  0  # atno 11912 bound_to 53  
   68.5905   23.0122   31.7694 LP  0  0  0  0  0  0  0  0  0  0  0  0  # atno 11913 bound_to 53  
   73.6022   17.2209   29.1978 LP  0  0  0  0  0  0  0  0  0  0  0  0  # atno 11922 bound_to 4448
   75.1580   17.3845   29.6661 LP  0  0  0  0  0  0  0  0  0  0  0  0  # atno 11923 bound_to 4448
   73.9212   18.3668   32.2831 LP  0  0  0  0  0  0  0  0  0  0  0  0  # atno 11930 bound_to 4172
   74.9710   17.5622   31.3254 LP  0  0  0  0  0  0  0  0  0  0  0  0  # atno 11931 bound_to 4172

$$$$
****|SAP-35|sdf|1|dock10
  -GOLD-   9 823 9 83D 1   1.00000     0.00000

 44 47  0  0  0  0  0  0  0  0  1 V2000
   62.4599   25.9600   22.8219 S   0  0  0  0  0  0  0  0  0  0  0  0
   63.0433   24.7253   23.8733 C   0  0  0  0  0  0  0  0  0  0  0  0
   63.9153   23.8598   23.2097 C   0  0  0  0  0  0  0  0  0  0  0  0
   64.0737   24.2363   21.8334 C   0  0  0  0  0  0  0  0  0  0  0  0
   63.3405   25.3496   21.4955 C   0  0  0  0  0  0  0  0  0  0  0  0
   63.2787   25.8348   20.5311 H   0  0  0  0  0  0  0  0  0  0  0  0
   64.6976   23.7043   21.1262 H   0  0  0  0  0  0  0  0  0  0  0  0
   64.4828   22.7885   23.9428 C   0  0  0  0  0  0  0  0  0  0  0  0
   64.1662   22.5886   25.2993 C   0  0  0  0  0  0  0  0  0  0  0  0
   63.2908   23.4759   25.9277 C   0  0  0  0  0  0  0  0  0  0  0  0
   62.7262   24.5496   25.2325 C   0  0  0  0  0  0  0  0  0  0  0  0
   62.0465   25.2326   25.7346 H   0  0  0  0  0  0  0  0  0  0  0  0
   63.0301   23.3421   26.9765 H   0  0  0  0  0  0  0  0  0  0  0  0
   64.7592   21.4312   26.0677 C   0  0  0  0  0  0  0  0  0  0  0  0
   65.0558   19.9967   24.9929 S   0  0  0  0  0  0  0  0  0  0  0  0
   65.3995   18.8055   26.1968 C   0  0  0  0  0  0  0  0  0  0  0  0
   64.5797   17.7460   26.1452 N   0  0  0  0  0  0  0  0  0  0  0  0
   64.7433   16.7294   27.0237 C   0  0  0  0  0  0  0  0  0  0  0  0
   64.0230   15.7407   26.9383 O   0  0  0  0  0  0  0  0  0  0  0  0
   65.7066   16.8629   27.9721 N   0  0  0  0  0  0  0  0  0  0  0  0
   66.4365   17.9197   27.9610 C   0  0  0  0  0  0  0  0  0  0  0  0
   67.6518   18.0870   29.2073 S   0  0  0  0  0  0  0  0  0  0  0  0
   67.6923   16.3449   29.7025 C   0  0  0  0  0  0  0  0  0  0  0  0
   68.8625   15.6158   29.0907 C   0  0  0  0  0  0  0  0  0  0  0  0
   69.9358   16.3339   28.5465 C   0  0  0  0  0  0  0  0  0  0  0  0
   71.0122   15.6579   27.9835 C   0  0  0  0  0  0  0  0  0  0  0  0
   72.0249   16.3563   27.4548 F   0  0  0  0  0  0  0  0  0  0  0  0
   71.0526   14.2697   27.9536 C   0  0  0  0  0  0  0  0  0  0  0  0
   69.9990   13.5268   28.5049 C   0  0  0  0  0  0  0  0  0  0  0  0
   68.9070   14.2110   29.0703 C   0  0  0  0  0  0  0  0  0  0  0  0
   68.0835   13.6414   29.5030 H   0  0  0  0  0  0  0  0  0  0  0  0
   70.0420   12.0197   28.4636 C   0  0  0  0  0  0  0  0  0  0  0  0
   69.9660   11.5264   27.1970 F   0  0  0  0  0  0  0  0  0  0  0  0
   71.1781   11.4946   29.0012 F   0  0  0  0  0  0  0  0  0  0  0  0
   69.0097   11.4552   29.1485 F   0  0  0  0  0  0  0  0  0  0  0  0
   71.9096   13.7756   27.5021 H   0  0  0  0  0  0  0  0  0  0  0  0
   69.9460   17.4210   28.5546 H   0  0  0  0  0  0  0  0  0  0  0  0
   66.7614   15.8487   29.4029 H   0  0  0  0  0  0  0  0  0  0  0  0
   67.7424   16.2807   30.7958 H   0  0  0  0  0  0  0  0  0  0  0  0
   66.3303   18.9383   27.0648 N   0  0  0  0  0  0  0  0  0  0  0  0
   63.8593   17.6637   25.4462 H   0  0  0  0  0  0  0  0  0  0  0  0
   65.7051   21.7466   26.5235 H   0  0  0  0  0  0  0  0  0  0  0  0
   64.0879   21.1469   26.8854 H   0  0  0  0  0  0  0  0  0  0  0  0
   65.1610   22.1060   23.4352 H   0  0  0  0  0  0  0  0  0  0  0  0
  1  2  1  0  0  0  0
  1  5  1  0  0  0  0
  2  3  2  0  0  0  0
  2 11  1  0  0  0  0
  3  4  1  0  0  0  0
  3  8  1  0  0  0  0
  4  5  2  0  0  0  0
  4  7  1  0  0  0  0
  5  6  1  0  0  0  0
  8  9  2  0  0  0  0
  8 44  1  0  0  0  0
  9 10  1  0  0  0  0
  9 14  1  0  0  0  0
 10 11  2  0  0  0  0
 10 13  1  0  0  0  0
 11 12  1  0  0  0  0
 14 15  1  0  0  0  0
 14 42  1  0  0  0  0
 14 43  1  0  0  0  0
 15 16  1  0  0  0  0
 16 17  1  0  0  0  0
 16 40  2  0  0  0  0
 17 18  1  0  0  0  0
 17 41  1  0  0  0  0
 18 19  2  0  0  0  0
 18 20  1  0  0  0  0
 20 21  2  0  0  0  0
 21 22  1  0  0  0  0
 21 40  1  0  0  0  0
 22 23  1  0  0  0  0
 23 24  1  0  0  0  0
 23 38  1  0  0  0  0
 23 39  1  0  0  0  0
 24 25  2  0  0  0  0
 24 30  1  0  0  0  0
 25 26  1  0  0  0  0
 25 37  1  0  0  0  0
 26 27  1  0  0  0  0
 26 28  2  0  0  0  0
 28 29  1  0  0  0  0
 28 36  1  0  0  0  0
 29 30  2  0  0  0  0
 29 32  1  0  0  0  0
 30 31  1  0  0  0  0
 32 33  1  0  0  0  0
 32 34  1  0  0  0  0
 32 35  1  0  0  0  0
M  END
> <Gold.Goldscore.Fitness>
66.0202

> <Gold.Goldscore.External.HBond>
7.1318

> <Gold.Protein.ActiveResidues>
 GLU87   ILE88   VAL90   ASN91   ALA92   ASP94   ASN95   ARG98   ILE118  ASN120 
 LYS123  GLY124  ILE125  ILE141  PHE142  THR147  SER148  SER149  ASN150  LYS157 
 THR159  GLY160  GLY161  ARG162  ASN163  GLY164  TYR165  GLY166  ALA167  LYS168 
 THR215  ILE217  GLN376  ILE33   TYR34   MG903  

> <Gold.Protein.RotatedWaterAtoms>
   32.4470    2.9410   36.3270 O.3 0  0  0  0  0  0  0  0  0  0  0  0  # atno 1    bound_to 2    3    AM1 OFF
   31.8359    3.0941   37.0946 H   0  0  0  0  0  0  0  0  0  0  0  0  # atno 2    bound_to 1    AM1 OFF
   31.9233    2.6242   35.5451 H   0  0  0  0  0  0  0  0  0  0  0  0  # atno 3    bound_to 1    AM1 OFF
   33.1269    2.2507   36.5746 LP  0  0  0  0  0  0  0  0  0  0  0  0  # atno 4    bound_to 1    AM1 OFF
   32.9099    3.7962   36.0938 LP  0  0  0  0  0  0  0  0  0  0  0  0  # atno 5    boun

> <Gold.Goldscore.Internal.HBond>
0.0

> <Gold.Goldscore.Internal.Torsion.Weighted>
-3.561

> <Gold.Protein.RotatedTorsions>
[ 7484 1497 1496 1493 ] final -108.15 input   60.00 | X-H torsion
[ 9179 2997 2996 2994 ] final  -52.84 input   60.00 | X-H torsion
[ 6913  975  974  971 ] final  -82.68 input   60.00 | X-H torsion
[ 6967 1046 1045 1044 ] final  -95.30 input   60.00 | X-H torsion
[ 6909  969  968  965 ] final   98.88 input   59.99 | X-H torsion

> <Gold.Goldscore.Constraint.Score>
0.0

> <Gold.Id.Protein>
1ZXM|1ZXM_protein|mol2

> <Gold.Protein.RotatedAtoms>
   41.4288   -2.0685   38.3092 H   0  0  0  0  0  0  0  0  0  0  0  0  # atno 6909 bound_to 969 
   37.9862   -3.8673   40.5387 H   0  0  0  0  0  0  0  0  0  0  0  0  # atno 6913 bound_to 975 
   40.2006   -9.0468   40.8017 H   0  0  0  0  0  0  0  0  0  0  0  0  # atno 6967 bound_to 1046
   39.1096   -8.3546   39.7634 H   0  0  0  0  0  0  0  0  0  0  0  0  # atno 6968 bound_to 1046
   38.5752   -9.1830   41.0960 H   0  0  0  0  0  0  0  0  0  0  0  0  # atno 6969 bound_to 1046
   28.1768    0.0826   41.7

> <Gold.Version>
5.3.0

> <Gold.Goldscore.Internal.Correction>
4.3684

> <Gold.Goldscore.Internal.Vdw>
0.6917

> <Gold.Goldscore.Internal.Vdw.Weighted>
0.6917

> <Gold.Goldscore.External.HBond.Weighted>
7.1318

> <Gold.Goldscore.External.Vdw.Weighted>
71.1262

> <Gold.Goldscore.Internal.HBond.Weighted>
0.0

> <Gold.Goldscore.Hbonds>
donor molecule, donor type, donor heavy atom, donor atom, acceptor molecule, acceptor atom, score
      P1  H   758  6690      AM2     1  0.87
      L1  H     9    34       P1   757  0.78
     AM2  H     1     2       P1   774  0.92
     AM2  H     1     3       P1  1497  0.99

> <Gold.Goldscore.External.Vdw>
51.7282

> <Gold.Goldscore.Internal.Torsion>
-3.561

> <Gold.Goldscore.Internal.Correction.Weighted>
4.3684

> <Gold.Goldscore.SBar>
-5.0

> <Gold.Version>
5.3.0

> <Gold.Id.Protein>
1ZXM|1ZXM_protein|mol2

> <Gold.ASP.Fitness>
36.1464

> <Gold.ASP.ASP>
37.3580

> <Gold.ASP.Map>
-186.7900

> <Gold.ASP.DEClash>
0.0402

> <Gold.ASP.DEInternal>
1.1714

> <Gold.ASP.Internal.Correction>
0.0813

> <Gold.Protein.RotatedTorsions>
[ 8550 3921 3920 3917 ] final   71.14 input   60.00 | X-H torsion
[ 8556 3927 3926 3923 ] final  171.50 input   60.00 | X-H torsion
[ 8545 3914 3913 3910 ] final   52.23 input   60.00 | X-H torsion
[ 9505   53   52   50 ] final   56.60 input   60.00 | X-H torsion
[ 11670 4448 4447 4444 ] final -161.48 input   60.00 | X-H torsion
[ 8370 4172 4171 4168 ] final   75.97 input   60.00 | X-H torsion
[ 8570 3947 3946 3944 ] final   36.50 input   60.00 | X-H torsion

> <Gold.Protein.ActiveResidues>
 ILE33   TYR34   GLU87   ILE88   VAL90   ASN91   ALA92   ASP94   ASN95   ARG98  
 ILE118  ASN120  LYS123  GLY124  ILE125  ILE141  PHE142  THR147  SER148  SER149 
 ASN150  TYR151  GLY160  GLY161  ARG162  ASN163  GLY164  TYR165  GLY166  ALA167 
 LYS168  LEU169  THR181  THR215  ILE217  ILE317  GLN376  LYS378  MG904  

> <Gold.Protein.RotatedAtoms>
   74.8835   17.5473   31.3332 H   0  0  0  0  0  0  0  0  0  0  0  0  # atno 8370 bound_to 4172
   61.7436   14.6318   35.2907 H   0  0  0  0  0  0  0  0  0  0  0  0  # atno 8545 bound_to 3914
   60.4432   17.5053   29.6075 H   0  0  0  0  0  0  0  0  0  0  0  0  # atno 8550 bound_to 3921
   64.3362   20.9982   28.6916 H   0  0  0  0  0  0  0  0  0  0  0  0  # atno 8556 bound_to 3927
   56.4304   15.1310   32.5572 H   0  0  0  0  0  0  0  0  0  0  0  0  # atno 8570 bound_to 3947
   67.4082   22.2797   30.5936 H   0  0  0  0  0  0  0  0  0  0  0  0  # atno 9505 bound_to 53  
   73.3568   16.9297   29.8981 H   0  0  0  0  0  0  0  0  0  0  0  0  # atno 11670 bound_to 4448
   59.8110   18.9499   30.0092 LP  0  0  0  0  0  0  0  0  0  0  0  0  # atno 11896 bound_to 3921
   58.8379   17.7450   29.4919 LP  0  0  0  0  0  0  0  0  0  0  0  0  # atno 11897 bound_to 3921
   62.7741   20.7995   28.2815 LP  0  0  0  0  0  0  0  0  0  0  0  0  # atno 11898 bound_to 3927
   63.4878   19.7589   29.3180 LP  0  0  0  0  0  0  0  0  0  0  0  0  # atno 11899 bound_to 3927
   60.9408   14.1160   36.6088 LP  0  0  0  0  0  0  0  0  0  0  0  0  # atno 11904 bound_to 3914
   62.4590   14.7005   36.7507 LP  0  0  0  0  0  0  0  0  0  0  0  0  # atno 11905 bound_to 3914
   68.5187   21.7053   31.6352 LP  0  0  0  0  0  0  0  0  0  0  0  0  # atno 11912 bound_to 53  
   68.2864   23.3152   31.4905 LP  0  0  0  0  0  0  0  0  0  0  0  0  # atno 11913 bound_to 53  
   74.6405   17.4816   29.0640 LP  0  0  0  0  0  0  0  0  0  0  0  0  # atno 11922 bound_to 4448
   74.8178   16.9927   30.6120 LP  0  0  0  0  0  0  0  0  0  0  0  0  # atno 11923 bound_to 4448
   75.5619   18.7060   32.2526 LP  0  0  0  0  0  0  0  0  0  0  0  0  # atno 11930 bound_to 4172
   73.9544   18.4310   32.3352 LP  0  0  0  0  0  0  0  0  0  0  0  0  # atno 11931 bound_to 4172

$$$$
****|SAP-35|sdf|1|dock6
  -GOLD-   9 823 9 73D 1   1.00000     0.00000

 44 47  0  0  0  0  0  0  0  0  1 V2000
   62.5669   25.3522   22.1269 S   0  0  0  0  0  0  0  0  0  0  0  0
   63.2081   24.3884   23.4036 C   0  0  0  0  0  0  0  0  0  0  0  0
   64.2134   23.5354   22.9437 C   0  0  0  0  0  0  0  0  0  0  0  0
   64.4243   23.6942   21.5325 C   0  0  0  0  0  0  0  0  0  0  0  0
   63.5985   24.6399   20.9713 C   0  0  0  0  0  0  0  0  0  0  0  0
   63.5506   24.9471   19.9355 H   0  0  0  0  0  0  0  0  0  0  0  0
   65.1501   23.1307   20.9597 H   0  0  0  0  0  0  0  0  0  0  0  0
   64.8431   22.6767   23.8782 C   0  0  0  0  0  0  0  0  0  0  0  0
   64.4573   22.6686   25.2315 C   0  0  0  0  0  0  0  0  0  0  0  0
   63.4487   23.5365   25.6530 C   0  0  0  0  0  0  0  0  0  0  0  0
   62.8191   24.4043   24.7554 C   0  0  0  0  0  0  0  0  0  0  0  0
   62.0356   25.0748   25.0975 H   0  0  0  0  0  0  0  0  0  0  0  0
   63.1324   23.5487   26.6949 H   0  0  0  0  0  0  0  0  0  0  0  0
   65.1192   21.7344   26.2169 C   0  0  0  0  0  0  0  0  0  0  0  0
   64.5992   20.0127   25.9595 S   0  0  0  0  0  0  0  0  0  0  0  0
   65.4085   19.2687   27.2928 C   0  0  0  0  0  0  0  0  0  0  0  0
   66.2354   20.0996   27.9433 N   0  0  0  0  0  0  0  0  0  0  0  0
   66.9260   19.6517   29.0177 C   0  0  0  0  0  0  0  0  0  0  0  0
   67.6412   20.4304   29.6388 O   0  0  0  0  0  0  0  0  0  0  0  0
   66.7938   18.3418   29.3524 N   0  0  0  0  0  0  0  0  0  0  0  0
   65.9933   17.6103   28.6640 C   0  0  0  0  0  0  0  0  0  0  0  0
   65.8585   15.9199   29.0916 S   0  0  0  0  0  0  0  0  0  0  0  0
   67.3195   15.8521   30.1605 C   0  0  0  0  0  0  0  0  0  0  0  0
   68.5473   15.4107   29.4035 C   0  0  0  0  0  0  0  0  0  0  0  0
   69.4532   16.3602   28.9119 C   0  0  0  0  0  0  0  0  0  0  0  0
   70.5834   15.9489   28.2147 C   0  0  0  0  0  0  0  0  0  0  0  0
   71.4339   16.8671   27.7386 F   0  0  0  0  0  0  0  0  0  0  0  0
   70.8427   14.6017   27.9971 C   0  0  0  0  0  0  0  0  0  0  0  0
   69.9606   13.6304   28.4915 C   0  0  0  0  0  0  0  0  0  0  0  0
   68.8139   14.0467   29.1930 C   0  0  0  0  0  0  0  0  0  0  0  0
   68.1228   13.2982   29.5826 H   0  0  0  0  0  0  0  0  0  0  0  0
   70.2407   12.1688   28.2465 C   0  0  0  0  0  0  0  0  0  0  0  0
   69.2753   11.3559   28.7570 F   0  0  0  0  0  0  0  0  0  0  0  0
   70.3380   11.8491   26.9260 F   0  0  0  0  0  0  0  0  0  0  0  0
   71.4099   11.7652   28.8152 F   0  0  0  0  0  0  0  0  0  0  0  0
   71.7353   14.3179   27.4446 H   0  0  0  0  0  0  0  0  0  0  0  0
   69.2903   17.4241   29.0653 H   0  0  0  0  0  0  0  0  0  0  0  0
   67.1420   15.1619   30.9940 H   0  0  0  0  0  0  0  0  0  0  0  0
   67.4893   16.8402   30.6042 H   0  0  0  0  0  0  0  0  0  0  0  0
   65.2490   18.0389   27.6084 N   0  0  0  0  0  0  0  0  0  0  0  0
   66.3364   21.0659   27.6779 H   0  0  0  0  0  0  0  0  0  0  0  0
   66.2077   21.8062   26.1081 H   0  0  0  0  0  0  0  0  0  0  0  0
   64.8777   22.0436   27.2398 H   0  0  0  0  0  0  0  0  0  0  0  0
   65.6254   22.0055   23.5305 H   0  0  0  0  0  0  0  0  0  0  0  0
  1  2  1  0  0  0  0
  1  5  1  0  0  0  0
  2  3  2  0  0  0  0
  2 11  1  0  0  0  0
  3  4  1  0  0  0  0
  3  8  1  0  0  0  0
  4  5  2  0  0  0  0
  4  7  1  0  0  0  0
  5  6  1  0  0  0  0
  8  9  2  0  0  0  0
  8 44  1  0  0  0  0
  9 10  1  0  0  0  0
  9 14  1  0  0  0  0
 10 11  2  0  0  0  0
 10 13  1  0  0  0  0
 11 12  1  0  0  0  0
 14 15  1  0  0  0  0
 14 42  1  0  0  0  0
 14 43  1  0  0  0  0
 15 16  1  0  0  0  0
 16 17  1  0  0  0  0
 16 40  2  0  0  0  0
 17 18  1  0  0  0  0
 17 41  1  0  0  0  0
 18 19  2  0  0  0  0
 18 20  1  0  0  0  0
 20 21  2  0  0  0  0
 21 22  1  0  0  0  0
 21 40  1  0  0  0  0
 22 23  1  0  0  0  0
 23 24  1  0  0  0  0
 23 38  1  0  0  0  0
 23 39  1  0  0  0  0
 24 25  2  0  0  0  0
 24 30  1  0  0  0  0
 25 26  1  0  0  0  0
 25 37  1  0  0  0  0
 26 27  1  0  0  0  0
 26 28  2  0  0  0  0
 28 29  1  0  0  0  0
 28 36  1  0  0  0  0
 29 30  2  0  0  0  0
 29 32  1  0  0  0  0
 30 31  1  0  0  0  0
 32 33  1  0  0  0  0
 32 34  1  0  0  0  0
 32 35  1  0  0  0  0
M  END
> <Gold.Goldscore.Fitness>
66.0202

> <Gold.Goldscore.External.HBond>
7.1318

> <Gold.Protein.ActiveResidues>
 GLU87   ILE88   VAL90   ASN91   ALA92   ASP94   ASN95   ARG98   ILE118  ASN120 
 LYS123  GLY124  ILE125  ILE141  PHE142  THR147  SER148  SER149  ASN150  LYS157 
 THR159  GLY160  GLY161  ARG162  ASN163  GLY164  TYR165  GLY166  ALA167  LYS168 
 THR215  ILE217  GLN376  ILE33   TYR34   MG903  

> <Gold.Protein.RotatedWaterAtoms>
   32.4470    2.9410   36.3270 O.3 0  0  0  0  0  0  0  0  0  0  0  0  # atno 1    bound_to 2    3    AM1 OFF
   31.8359    3.0941   37.0946 H   0  0  0  0  0  0  0  0  0  0  0  0  # atno 2    bound_to 1    AM1 OFF
   31.9233    2.6242   35.5451 H   0  0  0  0  0  0  0  0  0  0  0  0  # atno 3    bound_to 1    AM1 OFF
   33.1269    2.2507   36.5746 LP  0  0  0  0  0  0  0  0  0  0  0  0  # atno 4    bound_to 1    AM1 OFF
   32.9099    3.7962   36.0938 LP  0  0  0  0  0  0  0  0  0  0  0  0  # atno 5    boun

> <Gold.Goldscore.Internal.HBond>
0.0

> <Gold.Goldscore.Internal.Torsion.Weighted>
-3.561

> <Gold.Protein.RotatedTorsions>
[ 7484 1497 1496 1493 ] final -108.15 input   60.00 | X-H torsion
[ 9179 2997 2996 2994 ] final  -52.84 input   60.00 | X-H torsion
[ 6913  975  974  971 ] final  -82.68 input   60.00 | X-H torsion
[ 6967 1046 1045 1044 ] final  -95.30 input   60.00 | X-H torsion
[ 6909  969  968  965 ] final   98.88 input   59.99 | X-H torsion

> <Gold.Goldscore.Constraint.Score>
0.0

> <Gold.Id.Protein>
1ZXM|1ZXM_protein|mol2

> <Gold.Protein.RotatedAtoms>
   41.4288   -2.0685   38.3092 H   0  0  0  0  0  0  0  0  0  0  0  0  # atno 6909 bound_to 969 
   37.9862   -3.8673   40.5387 H   0  0  0  0  0  0  0  0  0  0  0  0  # atno 6913 bound_to 975 
   40.2006   -9.0468   40.8017 H   0  0  0  0  0  0  0  0  0  0  0  0  # atno 6967 bound_to 1046
   39.1096   -8.3546   39.7634 H   0  0  0  0  0  0  0  0  0  0  0  0  # atno 6968 bound_to 1046
   38.5752   -9.1830   41.0960 H   0  0  0  0  0  0  0  0  0  0  0  0  # atno 6969 bound_to 1046
   28.1768    0.0826   41.7

> <Gold.Version>
5.3.0

> <Gold.Goldscore.Internal.Correction>
4.3684

> <Gold.Goldscore.Internal.Vdw>
0.6917

> <Gold.Goldscore.Internal.Vdw.Weighted>
0.6917

> <Gold.Goldscore.External.HBond.Weighted>
7.1318

> <Gold.Goldscore.External.Vdw.Weighted>
71.1262

> <Gold.Goldscore.Internal.HBond.Weighted>
0.0

> <Gold.Goldscore.Hbonds>
donor molecule, donor type, donor heavy atom, donor atom, acceptor molecule, acceptor atom, score
      P1  H   758  6690      AM2     1  0.87
      L1  H     9    34       P1   757  0.78
     AM2  H     1     2       P1   774  0.92
     AM2  H     1     3       P1  1497  0.99

> <Gold.Goldscore.External.Vdw>
51.7282

> <Gold.Goldscore.Internal.Torsion>
-3.561

> <Gold.Goldscore.Internal.Correction.Weighted>
4.3684

> <Gold.Goldscore.SBar>
-5.0

> <Gold.Version>
5.3.0

> <Gold.Id.Protein>
1ZXM|1ZXM_protein|mol2

> <Gold.ASP.Fitness>
35.1599

> <Gold.ASP.ASP>
36.9400

> <Gold.ASP.Map>
-184.7000

> <Gold.ASP.DEClash>
0.9425

> <Gold.ASP.DEInternal>
0.8376

> <Gold.ASP.Internal.Correction>
0.0813

> <Gold.Protein.RotatedTorsions>
[ 8550 3921 3920 3917 ] final   34.83 input   60.00 | X-H torsion
[ 8556 3927 3926 3923 ] final   94.58 input   60.00 | X-H torsion
[ 8545 3914 3913 3910 ] final   44.00 input   60.00 | X-H torsion
[ 9505   53   52   50 ] final   57.07 input   60.00 | X-H torsion
[ 11670 4448 4447 4444 ] final  179.60 input   60.00 | X-H torsion
[ 8370 4172 4171 4168 ] final -127.94 input   60.00 | X-H torsion
[ 8570 3947 3946 3944 ] final   47.14 input   60.00 | X-H torsion

> <Gold.Protein.ActiveResidues>
 ILE33   TYR34   GLU87   ILE88   VAL90   ASN91   ALA92   ASP94   ASN95   ARG98  
 ILE118  ASN120  LYS123  GLY124  ILE125  ILE141  PHE142  THR147  SER148  SER149 
 ASN150  TYR151  GLY160  GLY161  ARG162  ASN163  GLY164  TYR165  GLY166  ALA167 
 LYS168  LEU169  THR181  THR215  ILE217  ILE317  GLN376  LYS378  MG904  

> <Gold.Protein.RotatedAtoms>
   74.3508   18.7815   32.5777 H   0  0  0  0  0  0  0  0  0  0  0  0  # atno 8370 bound_to 4172
   61.6188   14.5823   35.2886 H   0  0  0  0  0  0  0  0  0  0  0  0  # atno 8545 bound_to 3914
   60.6291   18.0230   29.8018 H   0  0  0  0  0  0  0  0  0  0  0  0  # atno 8550 bound_to 3921
   63.3171   21.2100   28.1693 H   0  0  0  0  0  0  0  0  0  0  0  0  # atno 8556 bound_to 3927
   56.5966   15.1614   32.5970 H   0  0  0  0  0  0  0  0  0  0  0  0  # atno 8570 bound_to 3947
   67.4072   22.2872   30.5929 H   0  0  0  0  0  0  0  0  0  0  0  0  # atno 9505 bound_to 53  
   73.3732   17.0315   29.6081 H   0  0  0  0  0  0  0  0  0  0  0  0  # atno 11670 bound_to 4448
   59.2386   18.8613   29.9110 LP  0  0  0  0  0  0  0  0  0  0  0  0  # atno 11896 bound_to 3921
   59.2231   17.3123   29.3944 LP  0  0  0  0  0  0  0  0  0  0  0  0  # atno 11897 bound_to 3921
   62.8819   19.8848   29.0076 LP  0  0  0  0  0  0  0  0  0  0  0  0  # atno 11898 bound_to 3927
   64.4062   20.4603   29.1179 LP  0  0  0  0  0  0  0  0  0  0  0  0  # atno 11899 bound_to 3927
   61.0077   14.1256   36.7259 LP  0  0  0  0  0  0  0  0  0  0  0  0  # atno 11904 bound_to 3914
   62.5177   14.7407   36.6357 LP  0  0  0  0  0  0  0  0  0  0  0  0  # atno 11905 bound_to 3914
   68.5145   21.7005   31.6309 LP  0  0  0  0  0  0  0  0  0  0  0  0  # atno 11912 bound_to 53  
   68.2917   23.3125   31.4954 LP  0  0  0  0  0  0  0  0  0  0  0  0  # atno 11913 bound_to 53  
   74.8952   17.4746   29.2404 LP  0  0  0  0  0  0  0  0  0  0  0  0  # atno 11922 bound_to 4448
   74.5465   16.8972   30.7276 LP  0  0  0  0  0  0  0  0  0  0  0  0  # atno 11923 bound_to 4448
   74.3210   17.5817   31.4788 LP  0  0  0  0  0  0  0  0  0  0  0  0  # atno 11930 bound_to 4172
   75.7318   18.3125   31.8559 LP  0  0  0  0  0  0  0  0  0  0  0  0  # atno 11931 bound_to 4172

$$$$
****|SAP-35|sdf|1|dock1
  -GOLD-   9 823 9 73D 1   1.00000     0.00000

 44 47  0  0  0  0  0  0  0  0  1 V2000
   64.0912   15.6193   32.0265 S   0  0  0  0  0  0  0  0  0  0  0  0
   65.2177   16.5379   31.1006 C   0  0  0  0  0  0  0  0  0  0  0  0
   66.1558   15.7143   30.4750 C   0  0  0  0  0  0  0  0  0  0  0  0
   65.9239   14.3323   30.7868 C   0  0  0  0  0  0  0  0  0  0  0  0
   64.8433   14.1451   31.6167 C   0  0  0  0  0  0  0  0  0  0  0  0
   64.4589   13.2114   32.0036 H   0  0  0  0  0  0  0  0  0  0  0  0
   66.5321   13.5160   30.4176 H   0  0  0  0  0  0  0  0  0  0  0  0
   67.1523   16.3228   29.6726 C   0  0  0  0  0  0  0  0  0  0  0  0
   67.2089   17.7208   29.5208 C   0  0  0  0  0  0  0  0  0  0  0  0
   66.2528   18.5103   30.1617 C   0  0  0  0  0  0  0  0  0  0  0  0
   65.2500   17.9361   30.9490 C   0  0  0  0  0  0  0  0  0  0  0  0
   64.5121   18.5629   31.4419 H   0  0  0  0  0  0  0  0  0  0  0  0
   66.2756   19.5942   30.0599 H   0  0  0  0  0  0  0  0  0  0  0  0
   68.2877   18.3627   28.6807 C   0  0  0  0  0  0  0  0  0  0  0  0
   68.1242   17.9166   26.9271 S   0  0  0  0  0  0  0  0  0  0  0  0
   66.6716   18.7734   26.5498 C   0  0  0  0  0  0  0  0  0  0  0  0
   65.6365   17.9681   26.2724 N   0  0  0  0  0  0  0  0  0  0  0  0
   64.4315   18.5059   25.9711 C   0  0  0  0  0  0  0  0  0  0  0  0
   63.4767   17.7638   25.7685 O   0  0  0  0  0  0  0  0  0  0  0  0
   64.3437   19.8597   25.9012 N   0  0  0  0  0  0  0  0  0  0  0  0
   65.3898   20.5569   26.1645 C   0  0  0  0  0  0  0  0  0  0  0  0
   65.2650   22.2969   26.0408 S   0  0  0  0  0  0  0  0  0  0  0  0
   63.8412   22.3306   24.9213 C   0  0  0  0  0  0  0  0  0  0  0  0
   64.0143   23.3528   23.8257 C   0  0  0  0  0  0  0  0  0  0  0  0
   64.7334   24.5313   24.0664 C   0  0  0  0  0  0  0  0  0  0  0  0
   64.8903   25.4707   23.0537 C   0  0  0  0  0  0  0  0  0  0  0  0
   65.5682   26.5987   23.3011 F   0  0  0  0  0  0  0  0  0  0  0  0
   64.3503   25.2628   21.7909 C   0  0  0  0  0  0  0  0  0  0  0  0
   63.6395   24.0853   21.5188 C   0  0  0  0  0  0  0  0  0  0  0  0
   63.4762   23.1366   22.5452 C   0  0  0  0  0  0  0  0  0  0  0  0
   62.9260   22.2169   22.3423 H   0  0  0  0  0  0  0  0  0  0  0  0
   63.0474   23.8663   20.1490 C   0  0  0  0  0  0  0  0  0  0  0  0
   62.2315   24.8845   19.7603 F   0  0  0  0  0  0  0  0  0  0  0  0
   63.9832   23.7421   19.1672 F   0  0  0  0  0  0  0  0  0  0  0  0
   62.2910   22.7359   20.0886 F   0  0  0  0  0  0  0  0  0  0  0  0
   64.4909   26.0215   21.0246 H   0  0  0  0  0  0  0  0  0  0  0  0
   65.1767   24.7301   25.0390 H   0  0  0  0  0  0  0  0  0  0  0  0
   62.9276   22.5562   25.4842 H   0  0  0  0  0  0  0  0  0  0  0  0
   63.7009   21.3349   24.4845 H   0  0  0  0  0  0  0  0  0  0  0  0
   66.6032   20.0508   26.5161 N   0  0  0  0  0  0  0  0  0  0  0  0
   65.7163   16.9649   26.3136 H   0  0  0  0  0  0  0  0  0  0  0  0
   68.2279   19.4523   28.7864 H   0  0  0  0  0  0  0  0  0  0  0  0
   69.2737   18.0581   29.0484 H   0  0  0  0  0  0  0  0  0  0  0  0
   67.8904   15.6912   29.1829 H   0  0  0  0  0  0  0  0  0  0  0  0
  1  2  1  0  0  0  0
  1  5  1  0  0  0  0
  2  3  2  0  0  0  0
  2 11  1  0  0  0  0
  3  4  1  0  0  0  0
  3  8  1  0  0  0  0
  4  5  2  0  0  0  0
  4  7  1  0  0  0  0
  5  6  1  0  0  0  0
  8  9  2  0  0  0  0
  8 44  1  0  0  0  0
  9 10  1  0  0  0  0
  9 14  1  0  0  0  0
 10 11  2  0  0  0  0
 10 13  1  0  0  0  0
 11 12  1  0  0  0  0
 14 15  1  0  0  0  0
 14 42  1  0  0  0  0
 14 43  1  0  0  0  0
 15 16  1  0  0  0  0
 16 17  1  0  0  0  0
 16 40  2  0  0  0  0
 17 18  1  0  0  0  0
 17 41  1  0  0  0  0
 18 19  2  0  0  0  0
 18 20  1  0  0  0  0
 20 21  2  0  0  0  0
 21 22  1  0  0  0  0
 21 40  1  0  0  0  0
 22 23  1  0  0  0  0
 23 24  1  0  0  0  0
 23 38  1  0  0  0  0
 23 39  1  0  0  0  0
 24 25  2  0  0  0  0
 24 30  1  0  0  0  0
 25 26  1  0  0  0  0
 25 37  1  0  0  0  0
 26 27  1  0  0  0  0
 26 28  2  0  0  0  0
 28 29  1  0  0  0  0
 28 36  1  0  0  0  0
 29 30  2  0  0  0  0
 29 32  1  0  0  0  0
 30 31  1  0  0  0  0
 32 33  1  0  0  0  0
 32 34  1  0  0  0  0
 32 35  1  0  0  0  0
M  END
> <Gold.Goldscore.Fitness>
66.0202

> <Gold.Goldscore.External.HBond>
7.1318

> <Gold.Protein.ActiveResidues>
 GLU87   ILE88   VAL90   ASN91   ALA92   ASP94   ASN95   ARG98   ILE118  ASN120 
 LYS123  GLY124  ILE125  ILE141  PHE142  THR147  SER148  SER149  ASN150  LYS157 
 THR159  GLY160  GLY161  ARG162  ASN163  GLY164  TYR165  GLY166  ALA167  LYS168 
 THR215  ILE217  GLN376  ILE33   TYR34   MG903  

> <Gold.Protein.RotatedWaterAtoms>
   32.4470    2.9410   36.3270 O.3 0  0  0  0  0  0  0  0  0  0  0  0  # atno 1    bound_to 2    3    AM1 OFF
   31.8359    3.0941   37.0946 H   0  0  0  0  0  0  0  0  0  0  0  0  # atno 2    bound_to 1    AM1 OFF
   31.9233    2.6242   35.5451 H   0  0  0  0  0  0  0  0  0  0  0  0  # atno 3    bound_to 1    AM1 OFF
   33.1269    2.2507   36.5746 LP  0  0  0  0  0  0  0  0  0  0  0  0  # atno 4    bound_to 1    AM1 OFF
   32.9099    3.7962   36.0938 LP  0  0  0  0  0  0  0  0  0  0  0  0  # atno 5    boun

> <Gold.Goldscore.Internal.HBond>
0.0

> <Gold.Goldscore.Internal.Torsion.Weighted>
-3.561

> <Gold.Protein.RotatedTorsions>
[ 7484 1497 1496 1493 ] final -108.15 input   60.00 | X-H torsion
[ 9179 2997 2996 2994 ] final  -52.84 input   60.00 | X-H torsion
[ 6913  975  974  971 ] final  -82.68 input   60.00 | X-H torsion
[ 6967 1046 1045 1044 ] final  -95.30 input   60.00 | X-H torsion
[ 6909  969  968  965 ] final   98.88 input   59.99 | X-H torsion

> <Gold.Goldscore.Constraint.Score>
0.0

> <Gold.Id.Protein>
1ZXM|1ZXM_protein|mol2

> <Gold.Protein.RotatedAtoms>
   41.4288   -2.0685   38.3092 H   0  0  0  0  0  0  0  0  0  0  0  0  # atno 6909 bound_to 969 
   37.9862   -3.8673   40.5387 H   0  0  0  0  0  0  0  0  0  0  0  0  # atno 6913 bound_to 975 
   40.2006   -9.0468   40.8017 H   0  0  0  0  0  0  0  0  0  0  0  0  # atno 6967 bound_to 1046
   39.1096   -8.3546   39.7634 H   0  0  0  0  0  0  0  0  0  0  0  0  # atno 6968 bound_to 1046
   38.5752   -9.1830   41.0960 H   0  0  0  0  0  0  0  0  0  0  0  0  # atno 6969 bound_to 1046
   28.1768    0.0826   41.7

> <Gold.Version>
5.3.0

> <Gold.Goldscore.Internal.Correction>
4.3684

> <Gold.Goldscore.Internal.Vdw>
0.6917

> <Gold.Goldscore.Internal.Vdw.Weighted>
0.6917

> <Gold.Goldscore.External.HBond.Weighted>
7.1318

> <Gold.Goldscore.External.Vdw.Weighted>
71.1262

> <Gold.Goldscore.Internal.HBond.Weighted>
0.0

> <Gold.Goldscore.Hbonds>
donor molecule, donor type, donor heavy atom, donor atom, acceptor molecule, acceptor atom, score
      P1  H   758  6690      AM2     1  0.87
      L1  H     9    34       P1   757  0.78
     AM2  H     1     2       P1   774  0.92
     AM2  H     1     3       P1  1497  0.99

> <Gold.Goldscore.External.Vdw>
51.7282

> <Gold.Goldscore.Internal.Torsion>
-3.561

> <Gold.Goldscore.Internal.Correction.Weighted>
4.3684

> <Gold.Goldscore.SBar>
-5.0

> <Gold.Version>
5.3.0

> <Gold.Id.Protein>
1ZXM|1ZXM_protein|mol2

> <Gold.ASP.Fitness>
34.9281

> <Gold.ASP.ASP>
36.5380

> <Gold.ASP.Map>
-182.6900

> <Gold.ASP.DEClash>
0.5116

> <Gold.ASP.DEInternal>
1.0983

> <Gold.ASP.Internal.Correction>
0.0813

> <Gold.Protein.RotatedTorsions>
[ 8550 3921 3920 3917 ] final   -0.26 input   60.00 | X-H torsion
[ 8556 3927 3926 3923 ] final   28.61 input   60.00 | X-H torsion
[ 8545 3914 3913 3910 ] final  144.49 input   60.00 | X-H torsion
[ 9505   53   52   50 ] final   69.32 input   60.00 | X-H torsion
[ 11670 4448 4447 4444 ] final  -75.71 input   60.00 | X-H torsion
[ 8370 4172 4171 4168 ] final  165.86 input   60.00 | X-H torsion
[ 8570 3947 3946 3944 ] final   57.07 input   60.00 | X-H torsion

> <Gold.Protein.ActiveResidues>
 ILE33   TYR34   GLU87   ILE88   VAL90   ASN91   ALA92   ASP94   ASN95   ARG98  
 ILE118  ASN120  LYS123  GLY124  ILE125  ILE141  PHE142  THR147  SER148  SER149 
 ASN150  TYR151  GLY160  GLY161  ARG162  ASN163  GLY164  TYR165  GLY166  ALA167 
 LYS168  LEU169  THR181  THR215  ILE217  ILE317  GLN376  LYS378  MG904  

> <Gold.Protein.RotatedAtoms>
   73.8789   18.0665   32.0194 H   0  0  0  0  0  0  0  0  0  0  0  0  # atno 8370 bound_to 4172
   62.5825   14.8135   36.3325 H   0  0  0  0  0  0  0  0  0  0  0  0  # atno 8545 bound_to 3914
   60.4651   18.5412   29.9544 H   0  0  0  0  0  0  0  0  0  0  0  0  # atno 8550 bound_to 3921
   62.6476   20.5002   28.4645 H   0  0  0  0  0  0  0  0  0  0  0  0  # atno 8556 bound_to 3927
   56.7414   15.1979   32.6599 H   0  0  0  0  0  0  0  0  0  0  0  0  # atno 8570 bound_to 3947
   67.3951   22.4866   30.5912 H   0  0  0  0  0  0  0  0  0  0  0  0  # atno 9505 bound_to 53  
   74.3039   16.8382   30.7456 H   0  0  0  0  0  0  0  0  0  0  0  0  # atno 11670 bound_to 4448
   58.8534   18.4805   29.7383 LP  0  0  0  0  0  0  0  0  0  0  0  0  # atno 11896 bound_to 3921
   59.7735   17.1711   29.4135 LP  0  0  0  0  0  0  0  0  0  0  0  0  # atno 11897 bound_to 3921
   63.8437   19.8639   29.3659 LP  0  0  0  0  0  0  0  0  0  0  0  0  # atno 11898 bound_to 3927
   64.1186   21.1960   28.4623 LP  0  0  0  0  0  0  0  0  0  0  0  0  # atno 11899 bound_to 3927
   61.3332   14.4566   35.3527 LP  0  0  0  0  0  0  0  0  0  0  0  0  # atno 11904 bound_to 3914
   61.2217   14.1769   36.9576 LP  0  0  0  0  0  0  0  0  0  0  0  0  # atno 11905 bound_to 3914
   68.3957   21.5914   31.5107 LP  0  0  0  0  0  0  0  0  0  0  0  0  # atno 11912 bound_to 53  
   68.4227   23.2207   31.6175 LP  0  0  0  0  0  0  0  0  0  0  0  0  # atno 11913 bound_to 53  
   73.4516   17.1246   29.3893 LP  0  0  0  0  0  0  0  0  0  0  0  0  # atno 11922 bound_to 4448
   75.0529   17.4418   29.4332 LP  0  0  0  0  0  0  0  0  0  0  0  0  # atno 11923 bound_to 4448
   75.3381   17.7160   31.3901 LP  0  0  0  0  0  0  0  0  0  0  0  0  # atno 11930 bound_to 4172
   75.1899   18.8983   32.5067 LP  0  0  0  0  0  0  0  0  0  0  0  0  # atno 11931 bound_to 4172

$$$$
****|SAP-35|sdf|1|dock2
  -GOLD-   9 823 9 73D 1   1.00000     0.00000

 44 47  0  0  0  0  0  0  0  0  1 V2000
   71.1368   14.0753   27.8377 S   0  0  0  0  0  0  0  0  0  0  0  0
   69.7726   14.8434   28.5582 C   0  0  0  0  0  0  0  0  0  0  0  0
   68.8709   13.9077   29.0693 C   0  0  0  0  0  0  0  0  0  0  0  0
   69.3294   12.5663   28.8422 C   0  0  0  0  0  0  0  0  0  0  0  0
   70.5364   12.5176   28.1847 C   0  0  0  0  0  0  0  0  0  0  0  0
   71.0955   11.6402   27.8899 H   0  0  0  0  0  0  0  0  0  0  0  0
   68.7881   11.6796   29.1472 H   0  0  0  0  0  0  0  0  0  0  0  0
   67.6940   14.3849   29.6973 C   0  0  0  0  0  0  0  0  0  0  0  0
   67.4290   15.7638   29.7910 C   0  0  0  0  0  0  0  0  0  0  0  0
   68.3551   16.6680   29.2686 C   0  0  0  0  0  0  0  0  0  0  0  0
   69.5313   16.2259   28.6553 C   0  0  0  0  0  0  0  0  0  0  0  0
   70.2436   16.9411   28.2533 H   0  0  0  0  0  0  0  0  0  0  0  0
   68.1725   17.7398   29.3286 H   0  0  0  0  0  0  0  0  0  0  0  0
   66.1613   16.2633   30.4432 C   0  0  0  0  0  0  0  0  0  0  0  0
   65.9411   18.0497   30.1962 S   0  0  0  0  0  0  0  0  0  0  0  0
   65.3128   18.0391   28.5864 C   0  0  0  0  0  0  0  0  0  0  0  0
   64.5374   16.9771   28.3256 N   0  0  0  0  0  0  0  0  0  0  0  0
   63.9681   16.8473   27.1046 C   0  0  0  0  0  0  0  0  0  0  0  0
   63.2192   15.9005   26.8891 O   0  0  0  0  0  0  0  0  0  0  0  0
   64.2662   17.7828   26.1659 N   0  0  0  0  0  0  0  0  0  0  0  0
   65.0331   18.7593   26.4947 C   0  0  0  0  0  0  0  0  0  0  0  0
   65.4290   19.9378   25.2647 S   0  0  0  0  0  0  0  0  0  0  0  0
   64.8098   21.3904   26.1524 C   0  0  0  0  0  0  0  0  0  0  0  0
   64.3436   22.4686   25.2060 C   0  0  0  0  0  0  0  0  0  0  0  0
   64.8356   22.5185   23.8949 C   0  0  0  0  0  0  0  0  0  0  0  0
   64.4034   23.5139   23.0261 C   0  0  0  0  0  0  0  0  0  0  0  0
   64.8917   23.5582   21.7800 F   0  0  0  0  0  0  0  0  0  0  0  0
   63.4783   24.4681   23.4301 C   0  0  0  0  0  0  0  0  0  0  0  0
   62.9584   24.4320   24.7318 C   0  0  0  0  0  0  0  0  0  0  0  0
   63.3997   23.4274   25.6129 C   0  0  0  0  0  0  0  0  0  0  0  0
   62.9997   23.3904   26.6270 H   0  0  0  0  0  0  0  0  0  0  0  0
   61.9603   25.4744   25.1699 C   0  0  0  0  0  0  0  0  0  0  0  0
   62.4344   26.2689   26.1686 F   0  0  0  0  0  0  0  0  0  0  0  0
   61.5824   26.3178   24.1694 F   0  0  0  0  0  0  0  0  0  0  0  0
   60.8110   24.9206   25.6450 F   0  0  0  0  0  0  0  0  0  0  0  0
   63.1659   25.2337   22.7237 H   0  0  0  0  0  0  0  0  0  0  0  0
   65.5565   21.7875   23.5372 H   0  0  0  0  0  0  0  0  0  0  0  0
   65.5951   21.7952   26.8019 H   0  0  0  0  0  0  0  0  0  0  0  0
   63.9859   21.0886   26.8098 H   0  0  0  0  0  0  0  0  0  0  0  0
   65.5842   18.9456   27.7250 N   0  0  0  0  0  0  0  0  0  0  0  0
   64.3341   16.2816   29.0252 H   0  0  0  0  0  0  0  0  0  0  0  0
   65.3025   15.7287   30.0207 H   0  0  0  0  0  0  0  0  0  0  0  0
   66.1833   16.0391   31.5152 H   0  0  0  0  0  0  0  0  0  0  0  0
   66.9828   13.6649   30.0963 H   0  0  0  0  0  0  0  0  0  0  0  0
  1  2  1  0  0  0  0
  1  5  1  0  0  0  0
  2  3  2  0  0  0  0
  2 11  1  0  0  0  0
  3  4  1  0  0  0  0
  3  8  1  0  0  0  0
  4  5  2  0  0  0  0
  4  7  1  0  0  0  0
  5  6  1  0  0  0  0
  8  9  2  0  0  0  0
  8 44  1  0  0  0  0
  9 10  1  0  0  0  0
  9 14  1  0  0  0  0
 10 11  2  0  0  0  0
 10 13  1  0  0  0  0
 11 12  1  0  0  0  0
 14 15  1  0  0  0  0
 14 42  1  0  0  0  0
 14 43  1  0  0  0  0
 15 16  1  0  0  0  0
 16 17  1  0  0  0  0
 16 40  2  0  0  0  0
 17 18  1  0  0  0  0
 17 41  1  0  0  0  0
 18 19  2  0  0  0  0
 18 20  1  0  0  0  0
 20 21  2  0  0  0  0
 21 22  1  0  0  0  0
 21 40  1  0  0  0  0
 22 23  1  0  0  0  0
 23 24  1  0  0  0  0
 23 38  1  0  0  0  0
 23 39  1  0  0  0  0
 24 25  2  0  0  0  0
 24 30  1  0  0  0  0
 25 26  1  0  0  0  0
 25 37  1  0  0  0  0
 26 27  1  0  0  0  0
 26 28  2  0  0  0  0
 28 29  1  0  0  0  0
 28 36  1  0  0  0  0
 29 30  2  0  0  0  0
 29 32  1  0  0  0  0
 30 31  1  0  0  0  0
 32 33  1  0  0  0  0
 32 34  1  0  0  0  0
 32 35  1  0  0  0  0
M  END
> <Gold.Goldscore.Fitness>
66.0202

> <Gold.Goldscore.External.HBond>
7.1318

> <Gold.Protein.ActiveResidues>
 GLU87   ILE88   VAL90   ASN91   ALA92   ASP94   ASN95   ARG98   ILE118  ASN120 
 LYS123  GLY124  ILE125  ILE141  PHE142  THR147  SER148  SER149  ASN150  LYS157 
 THR159  GLY160  GLY161  ARG162  ASN163  GLY164  TYR165  GLY166  ALA167  LYS168 
 THR215  ILE217  GLN376  ILE33   TYR34   MG903  

> <Gold.Protein.RotatedWaterAtoms>
   32.4470    2.9410   36.3270 O.3 0  0  0  0  0  0  0  0  0  0  0  0  # atno 1    bound_to 2    3    AM1 OFF
   31.8359    3.0941   37.0946 H   0  0  0  0  0  0  0  0  0  0  0  0  # atno 2    bound_to 1    AM1 OFF
   31.9233    2.6242   35.5451 H   0  0  0  0  0  0  0  0  0  0  0  0  # atno 3    bound_to 1    AM1 OFF
   33.1269    2.2507   36.5746 LP  0  0  0  0  0  0  0  0  0  0  0  0  # atno 4    bound_to 1    AM1 OFF
   32.9099    3.7962   36.0938 LP  0  0  0  0  0  0  0  0  0  0  0  0  # atno 5    boun

> <Gold.Goldscore.Internal.HBond>
0.0

> <Gold.Goldscore.Internal.Torsion.Weighted>
-3.561

> <Gold.Protein.RotatedTorsions>
[ 7484 1497 1496 1493 ] final -108.15 input   60.00 | X-H torsion
[ 9179 2997 2996 2994 ] final  -52.84 input   60.00 | X-H torsion
[ 6913  975  974  971 ] final  -82.68 input   60.00 | X-H torsion
[ 6967 1046 1045 1044 ] final  -95.30 input   60.00 | X-H torsion
[ 6909  969  968  965 ] final   98.88 input   59.99 | X-H torsion

> <Gold.Goldscore.Constraint.Score>
0.0

> <Gold.Id.Protein>
1ZXM|1ZXM_protein|mol2

> <Gold.Protein.RotatedAtoms>
   41.4288   -2.0685   38.3092 H   0  0  0  0  0  0  0  0  0  0  0  0  # atno 6909 bound_to 969 
   37.9862   -3.8673   40.5387 H   0  0  0  0  0  0  0  0  0  0  0  0  # atno 6913 bound_to 975 
   40.2006   -9.0468   40.8017 H   0  0  0  0  0  0  0  0  0  0  0  0  # atno 6967 bound_to 1046
   39.1096   -8.3546   39.7634 H   0  0  0  0  0  0  0  0  0  0  0  0  # atno 6968 bound_to 1046
   38.5752   -9.1830   41.0960 H   0  0  0  0  0  0  0  0  0  0  0  0  # atno 6969 bound_to 1046
   28.1768    0.0826   41.7

> <Gold.Version>
5.3.0

> <Gold.Goldscore.Internal.Correction>
4.3684

> <Gold.Goldscore.Internal.Vdw>
0.6917

> <Gold.Goldscore.Internal.Vdw.Weighted>
0.6917

> <Gold.Goldscore.External.HBond.Weighted>
7.1318

> <Gold.Goldscore.External.Vdw.Weighted>
71.1262

> <Gold.Goldscore.Internal.HBond.Weighted>
0.0

> <Gold.Goldscore.Hbonds>
donor molecule, donor type, donor heavy atom, donor atom, acceptor molecule, acceptor atom, score
      P1  H   758  6690      AM2     1  0.87
      L1  H     9    34       P1   757  0.78
     AM2  H     1     2       P1   774  0.92
     AM2  H     1     3       P1  1497  0.99

> <Gold.Goldscore.External.Vdw>
51.7282

> <Gold.Goldscore.Internal.Torsion>
-3.561

> <Gold.Goldscore.Internal.Correction.Weighted>
4.3684

> <Gold.Goldscore.SBar>
-5.0

> <Gold.Version>
5.3.0

> <Gold.Id.Protein>
1ZXM|1ZXM_protein|mol2

> <Gold.ASP.Fitness>
34.8398

> <Gold.ASP.ASP>
36.1760

> <Gold.ASP.Map>
-180.8800

> <Gold.ASP.DEClash>
0.3261

> <Gold.ASP.DEInternal>
1.0101

> <Gold.ASP.Internal.Correction>
0.0813

> <Gold.Protein.RotatedTorsions>
[ 8550 3921 3920 3917 ] final -106.71 input   60.00 | X-H torsion
[ 8556 3927 3926 3923 ] final  -61.66 input   60.00 | X-H torsion
[ 8545 3914 3913 3910 ] final  145.24 input   60.00 | X-H torsion
[ 9505   53   52   50 ] final   22.97 input   60.00 | X-H torsion
[ 11670 4448 4447 4444 ] final   72.03 input   60.00 | X-H torsion
[ 8370 4172 4171 4168 ] final   88.61 input   60.00 | X-H torsion
[ 8570 3947 3946 3944 ] final   -6.92 input   60.00 | X-H torsion

> <Gold.Protein.ActiveResidues>
 ILE33   TYR34   GLU87   ILE88   VAL90   ASN91   ALA92   ASP94   ASN95   ARG98  
 ILE118  ASN120  LYS123  GLY124  ILE125  ILE141  PHE142  THR147  SER148  SER149 
 ASN150  TYR151  GLY160  GLY161  ARG162  ASN163  GLY164  TYR165  GLY166  ALA167 
 LYS168  LEU169  THR181  THR215  ILE217  ILE317  GLN376  LYS378  MG904  

> <Gold.Protein.RotatedAtoms>
   74.6799   17.5293   31.3591 H   0  0  0  0  0  0  0  0  0  0  0  0  # atno 8370 bound_to 4172
   62.5816   14.8114   36.3445 H   0  0  0  0  0  0  0  0  0  0  0  0  # atno 8545 bound_to 3914
   58.9762   18.6501   29.8118 H   0  0  0  0  0  0  0  0  0  0  0  0  # atno 8550 bound_to 3921
   63.3806   19.7573   29.2842 H   0  0  0  0  0  0  0  0  0  0  0  0  # atno 8556 bound_to 3927
   55.7536   15.1179   32.7034 H   0  0  0  0  0  0  0  0  0  0  0  0  # atno 8570 bound_to 3947
   67.5925   21.7942   30.7476 H   0  0  0  0  0  0  0  0  0  0  0  0  # atno 9505 bound_to 53  
   74.7312   17.4788   29.1202 H   0  0  0  0  0  0  0  0  0  0  0  0  # atno 11670 bound_to 4448
   59.5525   17.1873   29.3924 LP  0  0  0  0  0  0  0  0  0  0  0  0  # atno 11896 bound_to 3921
   60.5738   18.3547   29.9029 LP  0  0  0  0  0  0  0  0  0  0  0  0  # atno 11897 bound_to 3921
   64.3859   20.9251   28.7612 LP  0  0  0  0  0  0  0  0  0  0  0  0  # atno 11898 bound_to 3927
   62.8383   20.8829   28.2416 LP  0  0  0  0  0  0  0  0  0  0  0  0  # atno 11899 bound_to 3927
   61.3436   14.4614   35.3480 LP  0  0  0  0  0  0  0  0  0  0  0  0  # atno 11904 bound_to 3914
   61.2122   14.1742   36.9502 LP  0  0  0  0  0  0  0  0  0  0  0  0  # atno 11905 bound_to 3914
   68.7254   22.1586   31.8575 LP  0  0  0  0  0  0  0  0  0  0  0  0  # atno 11912 bound_to 53  
   67.8942   23.3509   31.1131 LP  0  0  0  0  0  0  0  0  0  0  0  0  # atno 11913 bound_to 53  
   74.7299   16.9576   30.6617 LP  0  0  0  0  0  0  0  0  0  0  0  0  # atno 11922 bound_to 4448
   73.3442   16.9637   29.7977 LP  0  0  0  0  0  0  0  0  0  0  0  0  # atno 11923 bound_to 4448
   75.6609   18.5824   32.1185 LP  0  0  0  0  0  0  0  0  0  0  0  0  # atno 11930 bound_to 4172
   74.0605   18.5728   32.4433 LP  0  0  0  0  0  0  0  0  0  0  0  0  # atno 11931 bound_to 4172

$$$$
****|SAP-35|sdf|1|dock9
  -GOLD-   9 823 9 83D 1   1.00000     0.00000

 44 47  0  0  0  0  0  0  0  0  1 V2000
   64.6850   13.9987   31.3057 S   0  0  0  0  0  0  0  0  0  0  0  0
   65.9512   14.9412   30.6141 C   0  0  0  0  0  0  0  0  0  0  0  0
   65.6943   16.3083   30.7350 C   0  0  0  0  0  0  0  0  0  0  0  0
   64.4410   16.5453   31.3939 C   0  0  0  0  0  0  0  0  0  0  0  0
   63.7959   15.3840   31.7499 C   0  0  0  0  0  0  0  0  0  0  0  0
   62.8425   15.2823   32.2501 H   0  0  0  0  0  0  0  0  0  0  0  0
   64.0346   17.5295   31.5902 H   0  0  0  0  0  0  0  0  0  0  0  0
   66.6473   17.2179   30.2139 C   0  0  0  0  0  0  0  0  0  0  0  0
   67.8152   16.7599   29.5760 C   0  0  0  0  0  0  0  0  0  0  0  0
   68.0367   15.3855   29.4754 C   0  0  0  0  0  0  0  0  0  0  0  0
   67.1199   14.4650   29.9924 C   0  0  0  0  0  0  0  0  0  0  0  0
   67.3054   13.3979   29.9072 H   0  0  0  0  0  0  0  0  0  0  0  0
   68.9326   15.0064   28.9861 H   0  0  0  0  0  0  0  0  0  0  0  0
   68.8156   17.7365   29.0042 C   0  0  0  0  0  0  0  0  0  0  0  0
   69.0632   17.4748   27.2234 S   0  0  0  0  0  0  0  0  0  0  0  0
   67.4546   17.7716   26.6659 C   0  0  0  0  0  0  0  0  0  0  0  0
   66.5783   16.8311   27.0462 N   0  0  0  0  0  0  0  0  0  0  0  0
   65.2777   16.9439   26.6891 C   0  0  0  0  0  0  0  0  0  0  0  0
   64.4724   16.1075   27.0832 O   0  0  0  0  0  0  0  0  0  0  0  0
   64.9290   17.9898   25.8954 N   0  0  0  0  0  0  0  0  0  0  0  0
   65.8358   18.8360   25.5618 C   0  0  0  0  0  0  0  0  0  0  0  0
   65.3740   20.1593   24.5159 S   0  0  0  0  0  0  0  0  0  0  0  0
   64.4289   21.0887   25.7507 C   0  0  0  0  0  0  0  0  0  0  0  0
   63.7747   22.3094   25.1529 C   0  0  0  0  0  0  0  0  0  0  0  0
   63.1280   23.2395   25.9777 C   0  0  0  0  0  0  0  0  0  0  0  0
   62.5264   24.3630   25.4225 C   0  0  0  0  0  0  0  0  0  0  0  0
   61.9000   25.2370   26.2206 F   0  0  0  0  0  0  0  0  0  0  0  0
   62.5577   24.5918   24.0527 C   0  0  0  0  0  0  0  0  0  0  0  0
   63.2113   23.6850   23.2064 C   0  0  0  0  0  0  0  0  0  0  0  0
   63.8160   22.5451   23.7677 C   0  0  0  0  0  0  0  0  0  0  0  0
   64.3282   21.8349   23.1173 H   0  0  0  0  0  0  0  0  0  0  0  0
   63.2365   23.9320   21.7187 C   0  0  0  0  0  0  0  0  0  0  0  0
   62.5279   25.0369   21.3574 F   0  0  0  0  0  0  0  0  0  0  0  0
   64.4910   24.1136   21.2202 F   0  0  0  0  0  0  0  0  0  0  0  0
   62.7015   22.8968   21.0147 F   0  0  0  0  0  0  0  0  0  0  0  0
   62.0733   25.4802   23.6541 H   0  0  0  0  0  0  0  0  0  0  0  0
   63.0855   23.1008   27.0552 H   0  0  0  0  0  0  0  0  0  0  0  0
   65.0872   21.3976   26.5715 H   0  0  0  0  0  0  0  0  0  0  0  0
   63.6672   20.4344   26.1908 H   0  0  0  0  0  0  0  0  0  0  0  0
   67.1415   18.7787   25.9412 N   0  0  0  0  0  0  0  0  0  0  0  0
   66.8506   16.0518   27.6234 H   0  0  0  0  0  0  0  0  0  0  0  0
   68.4611   18.7596   29.1761 H   0  0  0  0  0  0  0  0  0  0  0  0
   69.7724   17.6359   29.5282 H   0  0  0  0  0  0  0  0  0  0  0  0
   66.4561   18.2854   30.2995 H   0  0  0  0  0  0  0  0  0  0  0  0
  1  2  1  0  0  0  0
  1  5  1  0  0  0  0
  2  3  2  0  0  0  0
  2 11  1  0  0  0  0
  3  4  1  0  0  0  0
  3  8  1  0  0  0  0
  4  5  2  0  0  0  0
  4  7  1  0  0  0  0
  5  6  1  0  0  0  0
  8  9  2  0  0  0  0
  8 44  1  0  0  0  0
  9 10  1  0  0  0  0
  9 14  1  0  0  0  0
 10 11  2  0  0  0  0
 10 13  1  0  0  0  0
 11 12  1  0  0  0  0
 14 15  1  0  0  0  0
 14 42  1  0  0  0  0
 14 43  1  0  0  0  0
 15 16  1  0  0  0  0
 16 17  1  0  0  0  0
 16 40  2  0  0  0  0
 17 18  1  0  0  0  0
 17 41  1  0  0  0  0
 18 19  2  0  0  0  0
 18 20  1  0  0  0  0
 20 21  2  0  0  0  0
 21 22  1  0  0  0  0
 21 40  1  0  0  0  0
 22 23  1  0  0  0  0
 23 24  1  0  0  0  0
 23 38  1  0  0  0  0
 23 39  1  0  0  0  0
 24 25  2  0  0  0  0
 24 30  1  0  0  0  0
 25 26  1  0  0  0  0
 25 37  1  0  0  0  0
 26 27  1  0  0  0  0
 26 28  2  0  0  0  0
 28 29  1  0  0  0  0
 28 36  1  0  0  0  0
 29 30  2  0  0  0  0
 29 32  1  0  0  0  0
 30 31  1  0  0  0  0
 32 33  1  0  0  0  0
 32 34  1  0  0  0  0
 32 35  1  0  0  0  0
M  END
> <Gold.Goldscore.Fitness>
66.0202

> <Gold.Goldscore.External.HBond>
7.1318

> <Gold.Protein.ActiveResidues>
 GLU87   ILE88   VAL90   ASN91   ALA92   ASP94   ASN95   ARG98   ILE118  ASN120 
 LYS123  GLY124  ILE125  ILE141  PHE142  THR147  SER148  SER149  ASN150  LYS157 
 THR159  GLY160  GLY161  ARG162  ASN163  GLY164  TYR165  GLY166  ALA167  LYS168 
 THR215  ILE217  GLN376  ILE33   TYR34   MG903  

> <Gold.Protein.RotatedWaterAtoms>
   32.4470    2.9410   36.3270 O.3 0  0  0  0  0  0  0  0  0  0  0  0  # atno 1    bound_to 2    3    AM1 OFF
   31.8359    3.0941   37.0946 H   0  0  0  0  0  0  0  0  0  0  0  0  # atno 2    bound_to 1    AM1 OFF
   31.9233    2.6242   35.5451 H   0  0  0  0  0  0  0  0  0  0  0  0  # atno 3    bound_to 1    AM1 OFF
   33.1269    2.2507   36.5746 LP  0  0  0  0  0  0  0  0  0  0  0  0  # atno 4    bound_to 1    AM1 OFF
   32.9099    3.7962   36.0938 LP  0  0  0  0  0  0  0  0  0  0  0  0  # atno 5    boun

> <Gold.Goldscore.Internal.HBond>
0.0

> <Gold.Goldscore.Internal.Torsion.Weighted>
-3.561

> <Gold.Protein.RotatedTorsions>
[ 7484 1497 1496 1493 ] final -108.15 input   60.00 | X-H torsion
[ 9179 2997 2996 2994 ] final  -52.84 input   60.00 | X-H torsion
[ 6913  975  974  971 ] final  -82.68 input   60.00 | X-H torsion
[ 6967 1046 1045 1044 ] final  -95.30 input   60.00 | X-H torsion
[ 6909  969  968  965 ] final   98.88 input   59.99 | X-H torsion

> <Gold.Goldscore.Constraint.Score>
0.0

> <Gold.Id.Protein>
1ZXM|1ZXM_protein|mol2

> <Gold.Protein.RotatedAtoms>
   41.4288   -2.0685   38.3092 H   0  0  0  0  0  0  0  0  0  0  0  0  # atno 6909 bound_to 969 
   37.9862   -3.8673   40.5387 H   0  0  0  0  0  0  0  0  0  0  0  0  # atno 6913 bound_to 975 
   40.2006   -9.0468   40.8017 H   0  0  0  0  0  0  0  0  0  0  0  0  # atno 6967 bound_to 1046
   39.1096   -8.3546   39.7634 H   0  0  0  0  0  0  0  0  0  0  0  0  # atno 6968 bound_to 1046
   38.5752   -9.1830   41.0960 H   0  0  0  0  0  0  0  0  0  0  0  0  # atno 6969 bound_to 1046
   28.1768    0.0826   41.7

> <Gold.Version>
5.3.0

> <Gold.Goldscore.Internal.Correction>
4.3684

> <Gold.Goldscore.Internal.Vdw>
0.6917

> <Gold.Goldscore.Internal.Vdw.Weighted>
0.6917

> <Gold.Goldscore.External.HBond.Weighted>
7.1318

> <Gold.Goldscore.External.Vdw.Weighted>
71.1262

> <Gold.Goldscore.Internal.HBond.Weighted>
0.0

> <Gold.Goldscore.Hbonds>
donor molecule, donor type, donor heavy atom, donor atom, acceptor molecule, acceptor atom, score
      P1  H   758  6690      AM2     1  0.87
      L1  H     9    34       P1   757  0.78
     AM2  H     1     2       P1   774  0.92
     AM2  H     1     3       P1  1497  0.99

> <Gold.Goldscore.External.Vdw>
51.7282

> <Gold.Goldscore.Internal.Torsion>
-3.561

> <Gold.Goldscore.Internal.Correction.Weighted>
4.3684

> <Gold.Goldscore.SBar>
-5.0

> <Gold.Version>
5.3.0

> <Gold.Id.Protein>
1ZXM|1ZXM_protein|mol2

> <Gold.ASP.Fitness>
33.9927

> <Gold.ASP.ASP>
36.1280

> <Gold.ASP.Map>
-180.6400

> <Gold.ASP.DEClash>
0.5741

> <Gold.ASP.DEInternal>
1.5612

> <Gold.ASP.Internal.Correction>
0.0813

> <Gold.Protein.RotatedTorsions>
[ 8550 3921 3920 3917 ] final   82.74 input   60.00 | X-H torsion
[ 8556 3927 3926 3923 ] final -140.73 input   60.00 | X-H torsion
[ 8545 3914 3913 3910 ] final  -78.87 input   60.00 | X-H torsion
[ 9505   53   52   50 ] final -148.86 input   60.00 | X-H torsion
[ 11670 4448 4447 4444 ] final -158.78 input   60.00 | X-H torsion
[ 8370 4172 4171 4168 ] final -146.21 input   60.00 | X-H torsion
[ 8570 3947 3946 3944 ] final   40.51 input   60.00 | X-H torsion

> <Gold.Protein.ActiveResidues>
 ILE33   TYR34   GLU87   ILE88   VAL90   ASN91   ALA92   ASP94   ASN95   ARG98  
 ILE118  ASN120  LYS123  GLY124  ILE125  ILE141  PHE142  THR147  SER148  SER149 
 ASN150  TYR151  GLY160  GLY161  ARG162  ASN163  GLY164  TYR165  GLY166  ALA167 
 LYS168  LEU169  THR181  THR215  ILE217  ILE317  GLN376  LYS378  MG904  

> <Gold.Protein.RotatedAtoms>
   74.1199   18.6222   32.4795 H   0  0  0  0  0  0  0  0  0  0  0  0  # atno 8370 bound_to 4172
   61.0386   14.1353   36.7609 H   0  0  0  0  0  0  0  0  0  0  0  0  # atno 8545 bound_to 3914
   60.3159   17.3779   29.5499 H   0  0  0  0  0  0  0  0  0  0  0  0  # atno 8550 bound_to 3921
   64.3762   20.3999   29.1557 H   0  0  0  0  0  0  0  0  0  0  0  0  # atno 8556 bound_to 3927
   56.4941   15.1413   32.5687 H   0  0  0  0  0  0  0  0  0  0  0  0  # atno 8570 bound_to 3947
   68.6074   22.9682   31.7867 H   0  0  0  0  0  0  0  0  0  0  0  0  # atno 9505 bound_to 53  
   73.3626   16.9167   29.9398 H   0  0  0  0  0  0  0  0  0  0  0  0  # atno 11670 bound_to 4448
   59.9957   18.9037   30.0160 LP  0  0  0  0  0  0  0  0  0  0  0  0  # atno 11896 bound_to 3921
   58.7814   17.9195   29.5432 LP  0  0  0  0  0  0  0  0  0  0  0  0  # atno 11897 bound_to 3921
   63.3889   21.2383   28.1706 LP  0  0  0  0  0  0  0  0  0  0  0  0  # atno 11898 bound_to 3927
   62.8327   19.9225   28.9617 LP  0  0  0  0  0  0  0  0  0  0  0  0  # atno 11899 bound_to 3927
   62.5344   14.7536   36.5934 LP  0  0  0  0  0  0  0  0  0  0  0  0  # atno 11904 bound_to 3914
   61.5754   14.5630   35.2855 LP  0  0  0  0  0  0  0  0  0  0  0  0  # atno 11905 bound_to 3914
   67.4464   22.8329   30.6546 LP  0  0  0  0  0  0  0  0  0  0  0  0  # atno 11912 bound_to 53  
   68.1512   21.4943   31.2695 LP  0  0  0  0  0  0  0  0  0  0  0  0  # atno 11913 bound_to 53  
   74.6002   17.4796   29.0456 LP  0  0  0  0  0  0  0  0  0  0  0  0  # atno 11922 bound_to 4448
   74.8522   17.0078   30.5885 LP  0  0  0  0  0  0  0  0  0  0  0  0  # atno 11923 bound_to 4448
   74.5957   17.5283   31.3725 LP  0  0  0  0  0  0  0  0  0  0  0  0  # atno 11930 bound_to 4172
   75.6896   18.5263   32.0610 LP  0  0  0  0  0  0  0  0  0  0  0  0  # atno 11931 bound_to 4172

$$$$
****|SAP-35|sdf|1|dock7
  -GOLD-   9 823 9 73D 1   1.00000     0.00000

 44 47  0  0  0  0  0  0  0  0  1 V2000
   63.7392   15.3319   31.8439 S   0  0  0  0  0  0  0  0  0  0  0  0
   65.1111   16.0448   31.0827 C   0  0  0  0  0  0  0  0  0  0  0  0
   65.9564   15.0741   30.5414 C   0  0  0  0  0  0  0  0  0  0  0  0
   65.4494   13.7523   30.7797 C   0  0  0  0  0  0  0  0  0  0  0  0
   64.2626   13.7518   31.4747 C   0  0  0  0  0  0  0  0  0  0  0  0
   63.6767   12.8974   31.7848 H   0  0  0  0  0  0  0  0  0  0  0  0
   65.9433   12.8448   30.4558 H   0  0  0  0  0  0  0  0  0  0  0  0
   67.1320   15.5040   29.8779 C   0  0  0  0  0  0  0  0  0  0  0  0
   67.4516   16.8709   29.7791 C   0  0  0  0  0  0  0  0  0  0  0  0
   66.5809   17.8112   30.3323 C   0  0  0  0  0  0  0  0  0  0  0  0
   65.4069   17.4164   30.9812 C   0  0  0  0  0  0  0  0  0  0  0  0
   64.7382   18.1594   31.4070 H   0  0  0  0  0  0  0  0  0  0  0  0
   66.8063   18.8747   30.2691 H   0  0  0  0  0  0  0  0  0  0  0  0
   68.7180   17.3193   29.0886 C   0  0  0  0  0  0  0  0  0  0  0  0
   68.6546   16.9994   27.3012 S   0  0  0  0  0  0  0  0  0  0  0  0
   67.1775   17.8109   26.9191 C   0  0  0  0  0  0  0  0  0  0  0  0
   66.1544   16.9743   26.6941 N   0  0  0  0  0  0  0  0  0  0  0  0
   64.9330   17.4751   26.3957 C   0  0  0  0  0  0  0  0  0  0  0  0
   63.9903   16.7063   26.2414 O   0  0  0  0  0  0  0  0  0  0  0  0
   64.8154   18.8230   26.2741 N   0  0  0  0  0  0  0  0  0  0  0  0
   65.8514   19.5512   26.4891 C   0  0  0  0  0  0  0  0  0  0  0  0
   65.6876   21.2820   26.2994 S   0  0  0  0  0  0  0  0  0  0  0  0
   63.9535   21.2771   25.7756 C   0  0  0  0  0  0  0  0  0  0  0  0
   63.5423   22.6039   25.1875 C   0  0  0  0  0  0  0  0  0  0  0  0
   62.5166   23.3520   25.7808 C   0  0  0  0  0  0  0  0  0  0  0  0
   62.1408   24.5742   25.2353 C   0  0  0  0  0  0  0  0  0  0  0  0
   61.1500   25.2726   25.8043 F   0  0  0  0  0  0  0  0  0  0  0  0
   62.7709   25.0810   24.1059 C   0  0  0  0  0  0  0  0  0  0  0  0
   63.8106   24.3601   23.5015 C   0  0  0  0  0  0  0  0  0  0  0  0
   64.1877   23.1205   24.0506 C   0  0  0  0  0  0  0  0  0  0  0  0
   64.9964   22.5533   23.5881 H   0  0  0  0  0  0  0  0  0  0  0  0
   64.4871   24.9092   22.2704 C   0  0  0  0  0  0  0  0  0  0  0  0
   64.3678   24.0851   21.1934 F   0  0  0  0  0  0  0  0  0  0  0  0
   63.9949   26.1157   21.8737 F   0  0  0  0  0  0  0  0  0  0  0  0
   65.8232   25.0938   22.4550 F   0  0  0  0  0  0  0  0  0  0  0  0
   62.4478   26.0392   23.7056 H   0  0  0  0  0  0  0  0  0  0  0  0
   62.0017   22.9939   26.6689 H   0  0  0  0  0  0  0  0  0  0  0  0
   63.3053   21.0442   26.6289 H   0  0  0  0  0  0  0  0  0  0  0  0
   63.8000   20.4788   25.0400 H   0  0  0  0  0  0  0  0  0  0  0  0
   67.0815   19.0842   26.8364 N   0  0  0  0  0  0  0  0  0  0  0  0
   66.2561   15.9753   26.7733 H   0  0  0  0  0  0  0  0  0  0  0  0
   68.8637   18.3921   29.2615 H   0  0  0  0  0  0  0  0  0  0  0  0
   69.5803   16.8037   29.5252 H   0  0  0  0  0  0  0  0  0  0  0  0
   67.7996   14.7564   29.4551 H   0  0  0  0  0  0  0  0  0  0  0  0
  1  2  1  0  0  0  0
  1  5  1  0  0  0  0
  2  3  2  0  0  0  0
  2 11  1  0  0  0  0
  3  4  1  0  0  0  0
  3  8  1  0  0  0  0
  4  5  2  0  0  0  0
  4  7  1  0  0  0  0
  5  6  1  0  0  0  0
  8  9  2  0  0  0  0
  8 44  1  0  0  0  0
  9 10  1  0  0  0  0
  9 14  1  0  0  0  0
 10 11  2  0  0  0  0
 10 13  1  0  0  0  0
 11 12  1  0  0  0  0
 14 15  1  0  0  0  0
 14 42  1  0  0  0  0
 14 43  1  0  0  0  0
 15 16  1  0  0  0  0
 16 17  1  0  0  0  0
 16 40  2  0  0  0  0
 17 18  1  0  0  0  0
 17 41  1  0  0  0  0
 18 19  2  0  0  0  0
 18 20  1  0  0  0  0
 20 21  2  0  0  0  0
 21 22  1  0  0  0  0
 21 40  1  0  0  0  0
 22 23  1  0  0  0  0
 23 24  1  0  0  0  0
 23 38  1  0  0  0  0
 23 39  1  0  0  0  0
 24 25  2  0  0  0  0
 24 30  1  0  0  0  0
 25 26  1  0  0  0  0
 25 37  1  0  0  0  0
 26 27  1  0  0  0  0
 26 28  2  0  0  0  0
 28 29  1  0  0  0  0
 28 36  1  0  0  0  0
 29 30  2  0  0  0  0
 29 32  1  0  0  0  0
 30 31  1  0  0  0  0
 32 33  1  0  0  0  0
 32 34  1  0  0  0  0
 32 35  1  0  0  0  0
M  END
> <Gold.Goldscore.Fitness>
66.0202

> <Gold.Goldscore.External.HBond>
7.1318

> <Gold.Protein.ActiveResidues>
 GLU87   ILE88   VAL90   ASN91   ALA92   ASP94   ASN95   ARG98   ILE118  ASN120 
 LYS123  GLY124  ILE125  ILE141  PHE142  THR147  SER148  SER149  ASN150  LYS157 
 THR159  GLY160  GLY161  ARG162  ASN163  GLY164  TYR165  GLY166  ALA167  LYS168 
 THR215  ILE217  GLN376  ILE33   TYR34   MG903  

> <Gold.Protein.RotatedWaterAtoms>
   32.4470    2.9410   36.3270 O.3 0  0  0  0  0  0  0  0  0  0  0  0  # atno 1    bound_to 2    3    AM1 OFF
   31.8359    3.0941   37.0946 H   0  0  0  0  0  0  0  0  0  0  0  0  # atno 2    bound_to 1    AM1 OFF
   31.9233    2.6242   35.5451 H   0  0  0  0  0  0  0  0  0  0  0  0  # atno 3    bound_to 1    AM1 OFF
   33.1269    2.2507   36.5746 LP  0  0  0  0  0  0  0  0  0  0  0  0  # atno 4    bound_to 1    AM1 OFF
   32.9099    3.7962   36.0938 LP  0  0  0  0  0  0  0  0  0  0  0  0  # atno 5    boun

> <Gold.Goldscore.Internal.HBond>
0.0

> <Gold.Goldscore.Internal.Torsion.Weighted>
-3.561

> <Gold.Protein.RotatedTorsions>
[ 7484 1497 1496 1493 ] final -108.15 input   60.00 | X-H torsion
[ 9179 2997 2996 2994 ] final  -52.84 input   60.00 | X-H torsion
[ 6913  975  974  971 ] final  -82.68 input   60.00 | X-H torsion
[ 6967 1046 1045 1044 ] final  -95.30 input   60.00 | X-H torsion
[ 6909  969  968  965 ] final   98.88 input   59.99 | X-H torsion

> <Gold.Goldscore.Constraint.Score>
0.0

> <Gold.Id.Protein>
1ZXM|1ZXM_protein|mol2

> <Gold.Protein.RotatedAtoms>
   41.4288   -2.0685   38.3092 H   0  0  0  0  0  0  0  0  0  0  0  0  # atno 6909 bound_to 969 
   37.9862   -3.8673   40.5387 H   0  0  0  0  0  0  0  0  0  0  0  0  # atno 6913 bound_to 975 
   40.2006   -9.0468   40.8017 H   0  0  0  0  0  0  0  0  0  0  0  0  # atno 6967 bound_to 1046
   39.1096   -8.3546   39.7634 H   0  0  0  0  0  0  0  0  0  0  0  0  # atno 6968 bound_to 1046
   38.5752   -9.1830   41.0960 H   0  0  0  0  0  0  0  0  0  0  0  0  # atno 6969 bound_to 1046
   28.1768    0.0826   41.7

> <Gold.Version>
5.3.0

> <Gold.Goldscore.Internal.Correction>
4.3684

> <Gold.Goldscore.Internal.Vdw>
0.6917

> <Gold.Goldscore.Internal.Vdw.Weighted>
0.6917

> <Gold.Goldscore.External.HBond.Weighted>
7.1318

> <Gold.Goldscore.External.Vdw.Weighted>
71.1262

> <Gold.Goldscore.Internal.HBond.Weighted>
0.0

> <Gold.Goldscore.Hbonds>
donor molecule, donor type, donor heavy atom, donor atom, acceptor molecule, acceptor atom, score
      P1  H   758  6690      AM2     1  0.87
      L1  H     9    34       P1   757  0.78
     AM2  H     1     2       P1   774  0.92
     AM2  H     1     3       P1  1497  0.99

> <Gold.Goldscore.External.Vdw>
51.7282

> <Gold.Goldscore.Internal.Torsion>
-3.561

> <Gold.Goldscore.Internal.Correction.Weighted>
4.3684

> <Gold.Goldscore.SBar>
-5.0

> <Gold.Version>
5.3.0

> <Gold.Id.Protein>
1ZXM|1ZXM_protein|mol2

> <Gold.ASP.Fitness>
32.9133

> <Gold.ASP.ASP>
33.4200

> <Gold.ASP.Map>
-167.1000

> <Gold.ASP.DEClash>
0.2627

> <Gold.ASP.DEInternal>
0.2440

> <Gold.ASP.Internal.Correction>
0.0813

> <Gold.Protein.RotatedTorsions>
[ 8550 3921 3920 3917 ] final -114.48 input   60.00 | X-H torsion
[ 8556 3927 3926 3923 ] final  -90.34 input   60.00 | X-H torsion
[ 8545 3914 3913 3910 ] final  -15.04 input   60.00 | X-H torsion
[ 9505   53   52   50 ] final -162.66 input   60.00 | X-H torsion
[ 11670 4448 4447 4444 ] final  -12.86 input   60.00 | X-H torsion
[ 8370 4172 4171 4168 ] final   -7.57 input   60.00 | X-H torsion
[ 8570 3947 3946 3944 ] final  -50.77 input   60.00 | X-H torsion

> <Gold.Protein.ActiveResidues>
 ILE33   TYR34   GLU87   ILE88   VAL90   ASN91   ALA92   ASP94   ASN95   ARG98  
 ILE118  ASN120  LYS123  GLY124  ILE125  ILE141  PHE142  THR147  SER148  SER149 
 ASN150  TYR151  GLY160  GLY161  ARG162  ASN163  GLY164  TYR165  GLY166  ALA167 
 LYS168  LEU169  THR181  THR215  ILE217  ILE317  GLN376  LYS378  MG904  

> <Gold.Protein.RotatedAtoms>
   75.7255   18.3058   31.8543 H   0  0  0  0  0  0  0  0  0  0  0  0  # atno 8370 bound_to 4172
   60.9227   14.2324   35.7827 H   0  0  0  0  0  0  0  0  0  0  0  0  # atno 8545 bound_to 3914
   58.9036   18.5541   29.7712 H   0  0  0  0  0  0  0  0  0  0  0  0  # atno 8550 bound_to 3921
   63.8253   19.8626   29.3634 H   0  0  0  0  0  0  0  0  0  0  0  0  # atno 8556 bound_to 3927
   55.3514   15.2761   33.2531 H   0  0  0  0  0  0  0  0  0  0  0  0  # atno 8570 bound_to 3947
   68.4955   23.1357   31.6869 H   0  0  0  0  0  0  0  0  0  0  0  0  # atno 9505 bound_to 53  
   75.1022   17.1601   30.2853 H   0  0  0  0  0  0  0  0  0  0  0  0  # atno 11670 bound_to 4448
   59.6791   17.1719   29.4025 LP  0  0  0  0  0  0  0  0  0  0  0  0  # atno 11896 bound_to 3921
   60.5204   18.4667   29.9338 LP  0  0  0  0  0  0  0  0  0  0  0  0  # atno 11897 bound_to 3921
   64.1313   21.1892   28.4720 LP  0  0  0  0  0  0  0  0  0  0  0  0  # atno 11898 bound_to 3927
   62.6451   20.5128   28.4511 LP  0  0  0  0  0  0  0  0  0  0  0  0  # atno 11899 bound_to 3927
   61.7961   14.3780   37.1479 LP  0  0  0  0  0  0  0  0  0  0  0  0  # atno 11904 bound_to 3914
   62.4305   14.8407   35.7161 LP  0  0  0  0  0  0  0  0  0  0  0  0  # atno 11905 bound_to 3914
   67.4008   22.6179   30.5999 LP  0  0  0  0  0  0  0  0  0  0  0  0  # atno 11912 bound_to 53  
   68.3094   21.5405   31.4247 LP  0  0  0  0  0  0  0  0  0  0  0  0  # atno 11913 bound_to 53  
   73.5112   16.8202   30.3221 LP  0  0  0  0  0  0  0  0  0  0  0  0  # atno 11922 bound_to 4448
   74.1893   17.4221   28.9639 LP  0  0  0  0  0  0  0  0  0  0  0  0  # atno 11923 bound_to 4448
   74.3526   18.7897   32.5816 LP  0  0  0  0  0  0  0  0  0  0  0  0  # atno 11930 bound_to 4172
   74.3158   17.5835   31.4815 LP  0  0  0  0  0  0  0  0  0  0  0  0  # atno 11931 bound_to 4172

$$$$
****|SAP-35|sdf|1|dock5
  -GOLD-   9 823 9 73D 1   1.00000     0.00000

 44 47  0  0  0  0  0  0  0  0  1 V2000
   69.8192   13.1272   28.4265 S   0  0  0  0  0  0  0  0  0  0  0  0
   68.9115   14.4950   28.9513 C   0  0  0  0  0  0  0  0  0  0  0  0
   69.5707   15.6895   28.6543 C   0  0  0  0  0  0  0  0  0  0  0  0
   70.8259   15.4422   28.0029 C   0  0  0  0  0  0  0  0  0  0  0  0
   71.0808   14.1027   27.8235 C   0  0  0  0  0  0  0  0  0  0  0  0
   71.9497   13.6489   27.3670 H   0  0  0  0  0  0  0  0  0  0  0  0
   71.5097   16.2200   27.6867 H   0  0  0  0  0  0  0  0  0  0  0  0
   68.9485   16.9078   29.0230 C   0  0  0  0  0  0  0  0  0  0  0  0
   67.7071   16.9177   29.6856 C   0  0  0  0  0  0  0  0  0  0  0  0
   67.0790   15.7028   29.9644 C   0  0  0  0  0  0  0  0  0  0  0  0
   67.6634   14.4858   29.6004 C   0  0  0  0  0  0  0  0  0  0  0  0
   67.1630   13.5476   29.8235 H   0  0  0  0  0  0  0  0  0  0  0  0
   66.1181   15.6844   30.4764 H   0  0  0  0  0  0  0  0  0  0  0  0
   67.0609   18.2205   30.0942 C   0  0  0  0  0  0  0  0  0  0  0  0
   65.2574   18.0561   30.2393 S   0  0  0  0  0  0  0  0  0  0  0  0
   64.8510   17.8943   28.5674 C   0  0  0  0  0  0  0  0  0  0  0  0
   64.3497   16.6905   28.2565 N   0  0  0  0  0  0  0  0  0  0  0  0
   63.9765   16.4293   26.9819 C   0  0  0  0  0  0  0  0  0  0  0  0
   63.4715   15.3444   26.7147 O   0  0  0  0  0  0  0  0  0  0  0  0
   64.1907   17.3948   26.0506 N   0  0  0  0  0  0  0  0  0  0  0  0
   64.6929   18.5140   26.4312 C   0  0  0  0  0  0  0  0  0  0  0  0
   64.9883   19.7337   25.2133 S   0  0  0  0  0  0  0  0  0  0  0  0
   63.8005   20.9512   25.8366 C   0  0  0  0  0  0  0  0  0  0  0  0
   63.9810   22.2970   25.1798 C   0  0  0  0  0  0  0  0  0  0  0  0
   64.3165   22.3808   23.8218 C   0  0  0  0  0  0  0  0  0  0  0  0
   64.4821   23.6233   23.2206 C   0  0  0  0  0  0  0  0  0  0  0  0
   64.8160   23.6890   21.9255 F   0  0  0  0  0  0  0  0  0  0  0  0
   64.3137   24.7985   23.9417 C   0  0  0  0  0  0  0  0  0  0  0  0
   63.9628   24.7433   25.2981 C   0  0  0  0  0  0  0  0  0  0  0  0
   63.8002   23.4857   25.9081 C   0  0  0  0  0  0  0  0  0  0  0  0
   63.5258   23.4329   26.9624 H   0  0  0  0  0  0  0  0  0  0  0  0
   63.7888   26.0211   26.0803 C   0  0  0  0  0  0  0  0  0  0  0  0
   64.6524   26.1175   27.1284 F   0  0  0  0  0  0  0  0  0  0  0  0
   63.9806   27.1443   25.3340 F   0  0  0  0  0  0  0  0  0  0  0  0
   62.5405   26.1348   26.6115 F   0  0  0  0  0  0  0  0  0  0  0  0
   64.4546   25.7522   23.4384 H   0  0  0  0  0  0  0  0  0  0  0  0
   64.4520   21.4854   23.2204 H   0  0  0  0  0  0  0  0  0  0  0  0
   63.9120   21.0615   26.9219 H   0  0  0  0  0  0  0  0  0  0  0  0
   62.7819   20.5845   25.6632 H   0  0  0  0  0  0  0  0  0  0  0  0
   65.0355   18.8267   27.7106 N   0  0  0  0  0  0  0  0  0  0  0  0
   64.2080   15.9767   28.9528 H   0  0  0  0  0  0  0  0  0  0  0  0
   67.4757   18.5437   31.0562 H   0  0  0  0  0  0  0  0  0  0  0  0
   67.3026   18.9992   29.3625 H   0  0  0  0  0  0  0  0  0  0  0  0
   69.4545   17.8445   28.7995 H   0  0  0  0  0  0  0  0  0  0  0  0
  1  2  1  0  0  0  0
  1  5  1  0  0  0  0
  2  3  2  0  0  0  0
  2 11  1  0  0  0  0
  3  4  1  0  0  0  0
  3  8  1  0  0  0  0
  4  5  2  0  0  0  0
  4  7  1  0  0  0  0
  5  6  1  0  0  0  0
  8  9  2  0  0  0  0
  8 44  1  0  0  0  0
  9 10  1  0  0  0  0
  9 14  1  0  0  0  0
 10 11  2  0  0  0  0
 10 13  1  0  0  0  0
 11 12  1  0  0  0  0
 14 15  1  0  0  0  0
 14 42  1  0  0  0  0
 14 43  1  0  0  0  0
 15 16  1  0  0  0  0
 16 17  1  0  0  0  0
 16 40  2  0  0  0  0
 17 18  1  0  0  0  0
 17 41  1  0  0  0  0
 18 19  2  0  0  0  0
 18 20  1  0  0  0  0
 20 21  2  0  0  0  0
 21 22  1  0  0  0  0
 21 40  1  0  0  0  0
 22 23  1  0  0  0  0
 23 24  1  0  0  0  0
 23 38  1  0  0  0  0
 23 39  1  0  0  0  0
 24 25  2  0  0  0  0
 24 30  1  0  0  0  0
 25 26  1  0  0  0  0
 25 37  1  0  0  0  0
 26 27  1  0  0  0  0
 26 28  2  0  0  0  0
 28 29  1  0  0  0  0
 28 36  1  0  0  0  0
 29 30  2  0  0  0  0
 29 32  1  0  0  0  0
 30 31  1  0  0  0  0
 32 33  1  0  0  0  0
 32 34  1  0  0  0  0
 32 35  1  0  0  0  0
M  END
> <Gold.Goldscore.Fitness>
66.0202

> <Gold.Goldscore.External.HBond>
7.1318

> <Gold.Protein.ActiveResidues>
 GLU87   ILE88   VAL90   ASN91   ALA92   ASP94   ASN95   ARG98   ILE118  ASN120 
 LYS123  GLY124  ILE125  ILE141  PHE142  THR147  SER148  SER149  ASN150  LYS157 
 THR159  GLY160  GLY161  ARG162  ASN163  GLY164  TYR165  GLY166  ALA167  LYS168 
 THR215  ILE217  GLN376  ILE33   TYR34   MG903  

> <Gold.Protein.RotatedWaterAtoms>
   32.4470    2.9410   36.3270 O.3 0  0  0  0  0  0  0  0  0  0  0  0  # atno 1    bound_to 2    3    AM1 OFF
   31.8359    3.0941   37.0946 H   0  0  0  0  0  0  0  0  0  0  0  0  # atno 2    bound_to 1    AM1 OFF
   31.9233    2.6242   35.5451 H   0  0  0  0  0  0  0  0  0  0  0  0  # atno 3    bound_to 1    AM1 OFF
   33.1269    2.2507   36.5746 LP  0  0  0  0  0  0  0  0  0  0  0  0  # atno 4    bound_to 1    AM1 OFF
   32.9099    3.7962   36.0938 LP  0  0  0  0  0  0  0  0  0  0  0  0  # atno 5    boun

> <Gold.Goldscore.Internal.HBond>
0.0

> <Gold.Goldscore.Internal.Torsion.Weighted>
-3.561

> <Gold.Protein.RotatedTorsions>
[ 7484 1497 1496 1493 ] final -108.15 input   60.00 | X-H torsion
[ 9179 2997 2996 2994 ] final  -52.84 input   60.00 | X-H torsion
[ 6913  975  974  971 ] final  -82.68 input   60.00 | X-H torsion
[ 6967 1046 1045 1044 ] final  -95.30 input   60.00 | X-H torsion
[ 6909  969  968  965 ] final   98.88 input   59.99 | X-H torsion

> <Gold.Goldscore.Constraint.Score>
0.0

> <Gold.Id.Protein>
1ZXM|1ZXM_protein|mol2

> <Gold.Protein.RotatedAtoms>
   41.4288   -2.0685   38.3092 H   0  0  0  0  0  0  0  0  0  0  0  0  # atno 6909 bound_to 969 
   37.9862   -3.8673   40.5387 H   0  0  0  0  0  0  0  0  0  0  0  0  # atno 6913 bound_to 975 
   40.2006   -9.0468   40.8017 H   0  0  0  0  0  0  0  0  0  0  0  0  # atno 6967 bound_to 1046
   39.1096   -8.3546   39.7634 H   0  0  0  0  0  0  0  0  0  0  0  0  # atno 6968 bound_to 1046
   38.5752   -9.1830   41.0960 H   0  0  0  0  0  0  0  0  0  0  0  0  # atno 6969 bound_to 1046
   28.1768    0.0826   41.7

> <Gold.Version>
5.3.0

> <Gold.Goldscore.Internal.Correction>
4.3684

> <Gold.Goldscore.Internal.Vdw>
0.6917

> <Gold.Goldscore.Internal.Vdw.Weighted>
0.6917

> <Gold.Goldscore.External.HBond.Weighted>
7.1318

> <Gold.Goldscore.External.Vdw.Weighted>
71.1262

> <Gold.Goldscore.Internal.HBond.Weighted>
0.0

> <Gold.Goldscore.Hbonds>
donor molecule, donor type, donor heavy atom, donor atom, acceptor molecule, acceptor atom, score
      P1  H   758  6690      AM2     1  0.87
      L1  H     9    34       P1   757  0.78
     AM2  H     1     2       P1   774  0.92
     AM2  H     1     3       P1  1497  0.99

> <Gold.Goldscore.External.Vdw>
51.7282

> <Gold.Goldscore.Internal.Torsion>
-3.561

> <Gold.Goldscore.Internal.Correction.Weighted>
4.3684

> <Gold.Goldscore.SBar>
-5.0

> <Gold.Version>
5.3.0

> <Gold.Id.Protein>
1ZXM|1ZXM_protein|mol2

> <Gold.ASP.Fitness>
32.8692

> <Gold.ASP.ASP>
34.1820

> <Gold.ASP.Map>
-170.9100

> <Gold.ASP.DEClash>
0.5961

> <Gold.ASP.DEInternal>
0.7167

> <Gold.ASP.Internal.Correction>
0.0813

> <Gold.Protein.RotatedTorsions>
[ 8550 3921 3920 3917 ] final -157.19 input   60.00 | X-H torsion
[ 8556 3927 3926 3923 ] final  -41.14 input   60.00 | X-H torsion
[ 8545 3914 3913 3910 ] final    2.42 input   60.00 | X-H torsion
[ 9505   53   52   50 ] final -171.49 input   60.00 | X-H torsion
[ 11670 4448 4447 4444 ] final   41.21 input   60.00 | X-H torsion
[ 8370 4172 4171 4168 ] final -142.62 input   60.00 | X-H torsion
[ 8570 3947 3946 3944 ] final  110.58 input   60.00 | X-H torsion

> <Gold.Protein.ActiveResidues>
 ILE33   TYR34   GLU87   ILE88   VAL90   ASN91   ALA92   ASP94   ASN95   ARG98  
 ILE118  ASN120  LYS123  GLY124  ILE125  ILE141  PHE142  THR147  SER148  SER149 
 ASN150  TYR151  GLY160  GLY161  ARG162  ASN163  GLY164  TYR165  GLY166  ALA167 
 LYS168  LEU169  THR181  THR215  ILE217  ILE317  GLN376  LYS378  MG904  

> <Gold.Protein.RotatedAtoms>
   74.1605   18.6572   32.5032 H   0  0  0  0  0  0  0  0  0  0  0  0  # atno 8370 bound_to 4172
   61.0682   14.3236   35.5563 H   0  0  0  0  0  0  0  0  0  0  0  0  # atno 8545 bound_to 3914
   58.7874   17.9209   29.5469 H   0  0  0  0  0  0  0  0  0  0  0  0  # atno 8550 bound_to 3921
   63.0794   19.7972   29.1469 H   0  0  0  0  0  0  0  0  0  0  0  0  # atno 8556 bound_to 3927
   57.1869   15.4773   33.3187 H   0  0  0  0  0  0  0  0  0  0  0  0  # atno 8570 bound_to 3947
   68.4105   23.2222   31.6090 H   0  0  0  0  0  0  0  0  0  0  0  0  # atno 9505 bound_to 53  
   75.0730   17.4282   29.4781 H   0  0  0  0  0  0  0  0  0  0  0  0  # atno 11670 bound_to 4448
   60.3196   17.3730   29.5462 LP  0  0  0  0  0  0  0  0  0  0  0  0  # atno 11896 bound_to 3921
   59.9969   18.9033   30.0160 LP  0  0  0  0  0  0  0  0  0  0  0  0  # atno 11897 bound_to 3921
   64.4415   20.6703   28.9726 LP  0  0  0  0  0  0  0  0  0  0  0  0  # atno 11898 bound_to 3927
   63.0860   21.0975   28.1685 LP  0  0  0  0  0  0  0  0  0  0  0  0  # atno 11899 bound_to 3927
   61.5304   14.2768   37.1159 LP  0  0  0  0  0  0  0  0  0  0  0  0  # atno 11904 bound_to 3914
   62.5496   14.8501   35.9761 LP  0  0  0  0  0  0  0  0  0  0  0  0  # atno 11905 bound_to 3914
   67.3918   22.4739   30.5841 LP  0  0  0  0  0  0  0  0  0  0  0  0  # atno 11912 bound_to 53  
   68.4040   21.5974   31.5190 LP  0  0  0  0  0  0  0  0  0  0  0  0  # atno 11913 bound_to 53  
   74.2538   16.8289   30.7500 LP  0  0  0  0  0  0  0  0  0  0  0  0  # atno 11922 bound_to 4448
   73.4761   17.1434   29.3490 LP  0  0  0  0  0  0  0  0  0  0  0  0  # atno 11923 bound_to 4448
   74.5391   17.5333   31.3889 LP  0  0  0  0  0  0  0  0  0  0  0  0  # atno 11930 bound_to 4172
   75.7052   18.4860   32.0207 LP  0  0  0  0  0  0  0  0  0  0  0  0  # atno 11931 bound_to 4172

$$$$
****|SAP-35|sdf|1|dock8
  -GOLD-   9 823 9 73D 1   1.00000     0.00000

 44 47  0  0  0  0  0  0  0  0  1 V2000
   63.6878   14.8599   30.3506 S   0  0  0  0  0  0  0  0  0  0  0  0
   64.7594   16.2086   30.4025 C   0  0  0  0  0  0  0  0  0  0  0  0
   66.0719   15.8079   30.6606 C   0  0  0  0  0  0  0  0  0  0  0  0
   66.1587   14.3838   30.8200 C   0  0  0  0  0  0  0  0  0  0  0  0
   64.9437   13.7548   30.6802 C   0  0  0  0  0  0  0  0  0  0  0  0
   64.7325   12.6971   30.7566 H   0  0  0  0  0  0  0  0  0  0  0  0
   67.0771   13.8514   31.0332 H   0  0  0  0  0  0  0  0  0  0  0  0
   67.0752   16.8057   30.7327 C   0  0  0  0  0  0  0  0  0  0  0  0
   66.7590   18.1668   30.5656 C   0  0  0  0  0  0  0  0  0  0  0  0
   65.4354   18.5275   30.3083 C   0  0  0  0  0  0  0  0  0  0  0  0
   64.4270   17.5631   30.2187 C   0  0  0  0  0  0  0  0  0  0  0  0
   63.4009   17.8583   30.0176 H   0  0  0  0  0  0  0  0  0  0  0  0
   65.1657   19.5741   30.1756 H   0  0  0  0  0  0  0  0  0  0  0  0
   67.8314   19.2259   30.6652 C   0  0  0  0  0  0  0  0  0  0  0  0
   68.8319   19.3093   29.1510 S   0  0  0  0  0  0  0  0  0  0  0  0
   67.6590   18.7649   28.0046 C   0  0  0  0  0  0  0  0  0  0  0  0
   67.4173   17.4482   28.0762 N   0  0  0  0  0  0  0  0  0  0  0  0
   66.5096   16.8877   27.2433 C   0  0  0  0  0  0  0  0  0  0  0  0
   66.2561   15.6926   27.3485 O   0  0  0  0  0  0  0  0  0  0  0  0
   65.9236   17.6891   26.3161 N   0  0  0  0  0  0  0  0  0  0  0  0
   66.2261   18.9373   26.3048 C   0  0  0  0  0  0  0  0  0  0  0  0
   65.4837   19.9474   25.0854 S   0  0  0  0  0  0  0  0  0  0  0  0
   64.9402   21.2667   26.2015 C   0  0  0  0  0  0  0  0  0  0  0  0
   64.1153   22.3045   25.4821 C   0  0  0  0  0  0  0  0  0  0  0  0
   63.3591   23.2338   26.2089 C   0  0  0  0  0  0  0  0  0  0  0  0
   62.6002   24.1885   25.5417 C   0  0  0  0  0  0  0  0  0  0  0  0
   61.8716   25.0621   26.2483 F   0  0  0  0  0  0  0  0  0  0  0  0
   62.5790   24.2481   24.1541 C   0  0  0  0  0  0  0  0  0  0  0  0
   63.3385   23.3399   23.4029 C   0  0  0  0  0  0  0  0  0  0  0  0
   64.1028   22.3703   24.0780 C   0  0  0  0  0  0  0  0  0  0  0  0
   64.6980   21.6606   23.5019 H   0  0  0  0  0  0  0  0  0  0  0  0
   63.3069   23.4020   21.8962 C   0  0  0  0  0  0  0  0  0  0  0  0
   64.5434   23.5665   21.3510 F   0  0  0  0  0  0  0  0  0  0  0  0
   62.7898   22.2824   21.3180 F   0  0  0  0  0  0  0  0  0  0  0  0
   62.5542   24.4399   21.4384 F   0  0  0  0  0  0  0  0  0  0  0  0
   61.9709   25.0068   23.6670 H   0  0  0  0  0  0  0  0  0  0  0  0
   63.3524   23.2251   27.2961 H   0  0  0  0  0  0  0  0  0  0  0  0
   65.8104   21.7516   26.6598 H   0  0  0  0  0  0  0  0  0  0  0  0
   64.3584   20.8298   27.0217 H   0  0  0  0  0  0  0  0  0  0  0  0
   67.0979   19.5421   27.1569 N   0  0  0  0  0  0  0  0  0  0  0  0
   67.8680   16.8604   28.7587 H   0  0  0  0  0  0  0  0  0  0  0  0
   67.3619   20.2000   30.8456 H   0  0  0  0  0  0  0  0  0  0  0  0
   68.4788   19.0176   31.5240 H   0  0  0  0  0  0  0  0  0  0  0  0
   68.1007   16.5055   30.9364 H   0  0  0  0  0  0  0  0  0  0  0  0
  1  2  1  0  0  0  0
  1  5  1  0  0  0  0
  2  3  2  0  0  0  0
  2 11  1  0  0  0  0
  3  4  1  0  0  0  0
  3  8  1  0  0  0  0
  4  5  2  0  0  0  0
  4  7  1  0  0  0  0
  5  6  1  0  0  0  0
  8  9  2  0  0  0  0
  8 44  1  0  0  0  0
  9 10  1  0  0  0  0
  9 14  1  0  0  0  0
 10 11  2  0  0  0  0
 10 13  1  0  0  0  0
 11 12  1  0  0  0  0
 14 15  1  0  0  0  0
 14 42  1  0  0  0  0
 14 43  1  0  0  0  0
 15 16  1  0  0  0  0
 16 17  1  0  0  0  0
 16 40  2  0  0  0  0
 17 18  1  0  0  0  0
 17 41  1  0  0  0  0
 18 19  2  0  0  0  0
 18 20  1  0  0  0  0
 20 21  2  0  0  0  0
 21 22  1  0  0  0  0
 21 40  1  0  0  0  0
 22 23  1  0  0  0  0
 23 24  1  0  0  0  0
 23 38  1  0  0  0  0
 23 39  1  0  0  0  0
 24 25  2  0  0  0  0
 24 30  1  0  0  0  0
 25 26  1  0  0  0  0
 25 37  1  0  0  0  0
 26 27  1  0  0  0  0
 26 28  2  0  0  0  0
 28 29  1  0  0  0  0
 28 36  1  0  0  0  0
 29 30  2  0  0  0  0
 29 32  1  0  0  0  0
 30 31  1  0  0  0  0
 32 33  1  0  0  0  0
 32 34  1  0  0  0  0
 32 35  1  0  0  0  0
M  END
> <Gold.Goldscore.Fitness>
66.0202

> <Gold.Goldscore.External.HBond>
7.1318

> <Gold.Protein.ActiveResidues>
 GLU87   ILE88   VAL90   ASN91   ALA92   ASP94   ASN95   ARG98   ILE118  ASN120 
 LYS123  GLY124  ILE125  ILE141  PHE142  THR147  SER148  SER149  ASN150  LYS157 
 THR159  GLY160  GLY161  ARG162  ASN163  GLY164  TYR165  GLY166  ALA167  LYS168 
 THR215  ILE217  GLN376  ILE33   TYR34   MG903  

> <Gold.Protein.RotatedWaterAtoms>
   32.4470    2.9410   36.3270 O.3 0  0  0  0  0  0  0  0  0  0  0  0  # atno 1    bound_to 2    3    AM1 OFF
   31.8359    3.0941   37.0946 H   0  0  0  0  0  0  0  0  0  0  0  0  # atno 2    bound_to 1    AM1 OFF
   31.9233    2.6242   35.5451 H   0  0  0  0  0  0  0  0  0  0  0  0  # atno 3    bound_to 1    AM1 OFF
   33.1269    2.2507   36.5746 LP  0  0  0  0  0  0  0  0  0  0  0  0  # atno 4    bound_to 1    AM1 OFF
   32.9099    3.7962   36.0938 LP  0  0  0  0  0  0  0  0  0  0  0  0  # atno 5    boun

> <Gold.Goldscore.Internal.HBond>
0.0

> <Gold.Goldscore.Internal.Torsion.Weighted>
-3.561

> <Gold.Protein.RotatedTorsions>
[ 7484 1497 1496 1493 ] final -108.15 input   60.00 | X-H torsion
[ 9179 2997 2996 2994 ] final  -52.84 input   60.00 | X-H torsion
[ 6913  975  974  971 ] final  -82.68 input   60.00 | X-H torsion
[ 6967 1046 1045 1044 ] final  -95.30 input   60.00 | X-H torsion
[ 6909  969  968  965 ] final   98.88 input   59.99 | X-H torsion

> <Gold.Goldscore.Constraint.Score>
0.0

> <Gold.Id.Protein>
1ZXM|1ZXM_protein|mol2

> <Gold.Protein.RotatedAtoms>
   41.4288   -2.0685   38.3092 H   0  0  0  0  0  0  0  0  0  0  0  0  # atno 6909 bound_to 969 
   37.9862   -3.8673   40.5387 H   0  0  0  0  0  0  0  0  0  0  0  0  # atno 6913 bound_to 975 
   40.2006   -9.0468   40.8017 H   0  0  0  0  0  0  0  0  0  0  0  0  # atno 6967 bound_to 1046
   39.1096   -8.3546   39.7634 H   0  0  0  0  0  0  0  0  0  0  0  0  # atno 6968 bound_to 1046
   38.5752   -9.1830   41.0960 H   0  0  0  0  0  0  0  0  0  0  0  0  # atno 6969 bound_to 1046
   28.1768    0.0826   41.7

> <Gold.Version>
5.3.0

> <Gold.Goldscore.Internal.Correction>
4.3684

> <Gold.Goldscore.Internal.Vdw>
0.6917

> <Gold.Goldscore.Internal.Vdw.Weighted>
0.6917

> <Gold.Goldscore.External.HBond.Weighted>
7.1318

> <Gold.Goldscore.External.Vdw.Weighted>
71.1262

> <Gold.Goldscore.Internal.HBond.Weighted>
0.0

> <Gold.Goldscore.Hbonds>
donor molecule, donor type, donor heavy atom, donor atom, acceptor molecule, acceptor atom, score
      P1  H   758  6690      AM2     1  0.87
      L1  H     9    34       P1   757  0.78
     AM2  H     1     2       P1   774  0.92
     AM2  H     1     3       P1  1497  0.99

> <Gold.Goldscore.External.Vdw>
51.7282

> <Gold.Goldscore.Internal.Torsion>
-3.561

> <Gold.Goldscore.Internal.Correction.Weighted>
4.3684

> <Gold.Goldscore.SBar>
-5.0

> <Gold.Version>
5.3.0

> <Gold.Id.Protein>
1ZXM|1ZXM_protein|mol2

> <Gold.ASP.Fitness>
32.6953

> <Gold.ASP.ASP>
36.6860

> <Gold.ASP.Map>
-183.4300

> <Gold.ASP.DEClash>
0.1636

> <Gold.ASP.DEInternal>
3.8272

> <Gold.ASP.Internal.Correction>
0.0813

> <Gold.Protein.RotatedTorsions>
[ 8550 3921 3920 3917 ] final -126.98 input   60.00 | X-H torsion
[ 8556 3927 3926 3923 ] final -154.29 input   60.00 | X-H torsion
[ 8545 3914 3913 3910 ] final   66.18 input   60.00 | X-H torsion
[ 9505   53   52   50 ] final  118.57 input   60.00 | X-H torsion
[ 11670 4448 4447 4444 ] final -123.79 input   60.00 | X-H torsion
[ 8370 4172 4171 4168 ] final   10.41 input   60.00 | X-H torsion
[ 8570 3947 3946 3944 ] final   26.07 input   60.00 | X-H torsion

> <Gold.Protein.ActiveResidues>
 ILE33   TYR34   GLU87   ILE88   VAL90   ASN91   ALA92   ASP94   ASN95   ARG98  
 ILE118  ASN120  LYS123  GLY124  ILE125  ILE141  PHE142  THR147  SER148  SER149 
 ASN150  TYR151  GLY160  GLY161  ARG162  ASN163  GLY164  TYR165  GLY166  ALA167 
 LYS168  LEU169  THR181  THR215  ILE217  ILE317  GLN376  LYS378  MG904  

> <Gold.Protein.RotatedAtoms>
   75.6738   18.0884   31.6654 H   0  0  0  0  0  0  0  0  0  0  0  0  # atno 8370 bound_to 4172
   61.9526   14.7082   35.3376 H   0  0  0  0  0  0  0  0  0  0  0  0  # atno 8545 bound_to 3914
   58.8181   18.3820   29.7038 H   0  0  0  0  0  0  0  0  0  0  0  0  # atno 8550 bound_to 3921
   64.4275   20.5801   29.0385 H   0  0  0  0  0  0  0  0  0  0  0  0  # atno 8556 bound_to 3927
   56.2616   15.1111   32.5473 H   0  0  0  0  0  0  0  0  0  0  0  0  # atno 8570 bound_to 3947
   67.6407   23.1756   30.8626 H   0  0  0  0  0  0  0  0  0  0  0  0  # atno 9505 bound_to 53  
   73.6095   16.8007   30.4322 H   0  0  0  0  0  0  0  0  0  0  0  0  # atno 11670 bound_to 4448
   59.8822   17.1816   29.4301 LP  0  0  0  0  0  0  0  0  0  0  0  0  # atno 11896 bound_to 3921
   60.4034   18.6304   29.9741 LP  0  0  0  0  0  0  0  0  0  0  0  0  # atno 11897 bound_to 3921
   63.1833   21.1540   28.1607 LP  0  0  0  0  0  0  0  0  0  0  0  0  # atno 11898 bound_to 3927
   62.9867   19.8254   29.0895 LP  0  0  0  0  0  0  0  0  0  0  0  0  # atno 11899 bound_to 3927
   60.8642   14.1171   36.3930 LP  0  0  0  0  0  0  0  0  0  0  0  0  # atno 11904 bound_to 3914
   62.3251   14.6224   36.9193 LP  0  0  0  0  0  0  0  0  0  0  0  0  # atno 11905 bound_to 3914
   67.8318   21.5628   30.9642 LP  0  0  0  0  0  0  0  0  0  0  0  0  # atno 11912 bound_to 53  
   68.7393   22.5554   31.8905 LP  0  0  0  0  0  0  0  0  0  0  0  0  # atno 11913 bound_to 53  
   74.0449   17.3873   28.9781 LP  0  0  0  0  0  0  0  0  0  0  0  0  # atno 11922 bound_to 4448
   75.1589   17.2169   30.1600 LP  0  0  0  0  0  0  0  0  0  0  0  0  # atno 11923 bound_to 4448
   74.6268   18.8914   32.6178 LP  0  0  0  0  0  0  0  0  0  0  0  0  # atno 11930 bound_to 4172
   74.0936   17.7008   31.6355 LP  0  0  0  0  0  0  0  0  0  0  0  0  # atno 11931 bound_to 4172

$$$$
****|SAP-35|sdf|1|dock3
  -GOLD-   9 823 9 73D 1   1.00000     0.00000

 44 47  0  0  0  0  0  0  0  0  1 V2000
   62.2323   25.9477   25.8400 S   0  0  0  0  0  0  0  0  0  0  0  0
   62.9799   24.4248   25.5367 C   0  0  0  0  0  0  0  0  0  0  0  0
   64.1183   24.2490   26.3258 C   0  0  0  0  0  0  0  0  0  0  0  0
   64.3523   25.3918   27.1625 C   0  0  0  0  0  0  0  0  0  0  0  0
   63.4100   26.3795   26.9949 C   0  0  0  0  0  0  0  0  0  0  0  0
   63.3567   27.3364   27.4957 H   0  0  0  0  0  0  0  0  0  0  0  0
   65.1824   25.4799   27.8522 H   0  0  0  0  0  0  0  0  0  0  0  0
   64.8458   23.0405   26.1927 C   0  0  0  0  0  0  0  0  0  0  0  0
   64.4446   22.0483   25.2789 C   0  0  0  0  0  0  0  0  0  0  0  0
   63.3004   22.2609   24.5082 C   0  0  0  0  0  0  0  0  0  0  0  0
   62.5556   23.4381   24.6282 C   0  0  0  0  0  0  0  0  0  0  0  0
   61.6668   23.5900   24.0220 H   0  0  0  0  0  0  0  0  0  0  0  0
   62.9699   21.5083   23.7940 H   0  0  0  0  0  0  0  0  0  0  0  0
   65.2383   20.7720   25.1279 C   0  0  0  0  0  0  0  0  0  0  0  0
   64.3243   19.3367   25.7648 S   0  0  0  0  0  0  0  0  0  0  0  0
   65.5033   18.7136   26.8639 C   0  0  0  0  0  0  0  0  0  0  0  0
   66.6984   18.4990   26.2959 N   0  0  0  0  0  0  0  0  0  0  0  0
   67.7201   18.0226   27.0449 C   0  0  0  0  0  0  0  0  0  0  0  0
   68.8240   17.8770   26.5312 O   0  0  0  0  0  0  0  0  0  0  0  0
   67.4633   17.7199   28.3441 N   0  0  0  0  0  0  0  0  0  0  0  0
   66.2844   17.9397   28.8039 C   0  0  0  0  0  0  0  0  0  0  0  0
   65.9649   17.5166   30.4704 S   0  0  0  0  0  0  0  0  0  0  0  0
   66.2098   15.7308   30.2889 C   0  0  0  0  0  0  0  0  0  0  0  0
   64.9201   14.9681   30.4630 C   0  0  0  0  0  0  0  0  0  0  0  0
   64.7746   14.0585   31.5190 C   0  0  0  0  0  0  0  0  0  0  0  0
   63.5842   13.3576   31.6756 C   0  0  0  0  0  0  0  0  0  0  0  0
   63.4632   12.4815   32.6810 F   0  0  0  0  0  0  0  0  0  0  0  0
   62.5199   13.5453   30.8030 C   0  0  0  0  0  0  0  0  0  0  0  0
   62.6335   14.4607   29.7470 C   0  0  0  0  0  0  0  0  0  0  0  0
   63.8401   15.1665   29.5854 C   0  0  0  0  0  0  0  0  0  0  0  0
   63.9371   15.8818   28.7677 H   0  0  0  0  0  0  0  0  0  0  0  0
   61.4790   14.6561   28.7964 C   0  0  0  0  0  0  0  0  0  0  0  0
   61.0381   15.9437   28.7627 F   0  0  0  0  0  0  0  0  0  0  0  0
   61.7760   14.3293   27.5079 F   0  0  0  0  0  0  0  0  0  0  0  0
   60.3991   13.8988   29.1338 F   0  0  0  0  0  0  0  0  0  0  0  0
   61.6053   12.9769   30.9551 H   0  0  0  0  0  0  0  0  0  0  0  0
   65.5812   13.8864   32.2273 H   0  0  0  0  0  0  0  0  0  0  0  0
   66.9409   15.3764   31.0253 H   0  0  0  0  0  0  0  0  0  0  0  0
   66.6363   15.5229   29.3005 H   0  0  0  0  0  0  0  0  0  0  0  0
   65.2481   18.4608   28.0921 N   0  0  0  0  0  0  0  0  0  0  0  0
   66.8741   18.7139   25.3276 H   0  0  0  0  0  0  0  0  0  0  0  0
   65.4714   20.6144   24.0683 H   0  0  0  0  0  0  0  0  0  0  0  0
   66.1933   20.8652   25.6563 H   0  0  0  0  0  0  0  0  0  0  0  0
   65.7363   22.8939   26.8000 H   0  0  0  0  0  0  0  0  0  0  0  0
  1  2  1  0  0  0  0
  1  5  1  0  0  0  0
  2  3  2  0  0  0  0
  2 11  1  0  0  0  0
  3  4  1  0  0  0  0
  3  8  1  0  0  0  0
  4  5  2  0  0  0  0
  4  7  1  0  0  0  0
  5  6  1  0  0  0  0
  8  9  2  0  0  0  0
  8 44  1  0  0  0  0
  9 10  1  0  0  0  0
  9 14  1  0  0  0  0
 10 11  2  0  0  0  0
 10 13  1  0  0  0  0
 11 12  1  0  0  0  0
 14 15  1  0  0  0  0
 14 42  1  0  0  0  0
 14 43  1  0  0  0  0
 15 16  1  0  0  0  0
 16 17  1  0  0  0  0
 16 40  2  0  0  0  0
 17 18  1  0  0  0  0
 17 41  1  0  0  0  0
 18 19  2  0  0  0  0
 18 20  1  0  0  0  0
 20 21  2  0  0  0  0
 21 22  1  0  0  0  0
 21 40  1  0  0  0  0
 22 23  1  0  0  0  0
 23 24  1  0  0  0  0
 23 38  1  0  0  0  0
 23 39  1  0  0  0  0
 24 25  2  0  0  0  0
 24 30  1  0  0  0  0
 25 26  1  0  0  0  0
 25 37  1  0  0  0  0
 26 27  1  0  0  0  0
 26 28  2  0  0  0  0
 28 29  1  0  0  0  0
 28 36  1  0  0  0  0
 29 30  2  0  0  0  0
 29 32  1  0  0  0  0
 30 31  1  0  0  0  0
 32 33  1  0  0  0  0
 32 34  1  0  0  0  0
 32 35  1  0  0  0  0
M  END
> <Gold.Goldscore.Fitness>
66.0202

> <Gold.Goldscore.External.HBond>
7.1318

> <Gold.Protein.ActiveResidues>
 GLU87   ILE88   VAL90   ASN91   ALA92   ASP94   ASN95   ARG98   ILE118  ASN120 
 LYS123  GLY124  ILE125  ILE141  PHE142  THR147  SER148  SER149  ASN150  LYS157 
 THR159  GLY160  GLY161  ARG162  ASN163  GLY164  TYR165  GLY166  ALA167  LYS168 
 THR215  ILE217  GLN376  ILE33   TYR34   MG903  

> <Gold.Protein.RotatedWaterAtoms>
   32.4470    2.9410   36.3270 O.3 0  0  0  0  0  0  0  0  0  0  0  0  # atno 1    bound_to 2    3    AM1 OFF
   31.8359    3.0941   37.0946 H   0  0  0  0  0  0  0  0  0  0  0  0  # atno 2    bound_to 1    AM1 OFF
   31.9233    2.6242   35.5451 H   0  0  0  0  0  0  0  0  0  0  0  0  # atno 3    bound_to 1    AM1 OFF
   33.1269    2.2507   36.5746 LP  0  0  0  0  0  0  0  0  0  0  0  0  # atno 4    bound_to 1    AM1 OFF
   32.9099    3.7962   36.0938 LP  0  0  0  0  0  0  0  0  0  0  0  0  # atno 5    boun

> <Gold.Goldscore.Internal.HBond>
0.0

> <Gold.Goldscore.Internal.Torsion.Weighted>
-3.561

> <Gold.Protein.RotatedTorsions>
[ 7484 1497 1496 1493 ] final -108.15 input   60.00 | X-H torsion
[ 9179 2997 2996 2994 ] final  -52.84 input   60.00 | X-H torsion
[ 6913  975  974  971 ] final  -82.68 input   60.00 | X-H torsion
[ 6967 1046 1045 1044 ] final  -95.30 input   60.00 | X-H torsion
[ 6909  969  968  965 ] final   98.88 input   59.99 | X-H torsion

> <Gold.Goldscore.Constraint.Score>
0.0

> <Gold.Id.Protein>
1ZXM|1ZXM_protein|mol2

> <Gold.Protein.RotatedAtoms>
   41.4288   -2.0685   38.3092 H   0  0  0  0  0  0  0  0  0  0  0  0  # atno 6909 bound_to 969 
   37.9862   -3.8673   40.5387 H   0  0  0  0  0  0  0  0  0  0  0  0  # atno 6913 bound_to 975 
   40.2006   -9.0468   40.8017 H   0  0  0  0  0  0  0  0  0  0  0  0  # atno 6967 bound_to 1046
   39.1096   -8.3546   39.7634 H   0  0  0  0  0  0  0  0  0  0  0  0  # atno 6968 bound_to 1046
   38.5752   -9.1830   41.0960 H   0  0  0  0  0  0  0  0  0  0  0  0  # atno 6969 bound_to 1046
   28.1768    0.0826   41.7

> <Gold.Version>
5.3.0

> <Gold.Goldscore.Internal.Correction>
4.3684

> <Gold.Goldscore.Internal.Vdw>
0.6917

> <Gold.Goldscore.Internal.Vdw.Weighted>
0.6917

> <Gold.Goldscore.External.HBond.Weighted>
7.1318

> <Gold.Goldscore.External.Vdw.Weighted>
71.1262

> <Gold.Goldscore.Internal.HBond.Weighted>
0.0

> <Gold.Goldscore.Hbonds>
donor molecule, donor type, donor heavy atom, donor atom, acceptor molecule, acceptor atom, score
      P1  H   758  6690      AM2     1  0.87
      L1  H     9    34       P1   757  0.78
     AM2  H     1     2       P1   774  0.92
     AM2  H     1     3       P1  1497  0.99

> <Gold.Goldscore.External.Vdw>
51.7282

> <Gold.Goldscore.Internal.Torsion>
-3.561

> <Gold.Goldscore.Internal.Correction.Weighted>
4.3684

> <Gold.Goldscore.SBar>
-5.0

> <Gold.Version>
5.3.0

> <Gold.Id.Protein>
1ZXM|1ZXM_protein|mol2

> <Gold.ASP.Fitness>
31.6150

> <Gold.ASP.ASP>
34.6040

> <Gold.ASP.Map>
-173.0200

> <Gold.ASP.DEClash>
2.1843

> <Gold.ASP.DEInternal>
0.8046

> <Gold.ASP.Internal.Correction>
0.0813

> <Gold.Protein.RotatedTorsions>
[ 8550 3921 3920 3917 ] final  178.03 input   60.00 | X-H torsion
[ 8556 3927 3926 3923 ] final  -90.75 input   60.00 | X-H torsion
[ 8545 3914 3913 3910 ] final   12.24 input   60.00 | X-H torsion
[ 9505   53   52   50 ] final  -56.95 input   60.00 | X-H torsion
[ 11670 4448 4447 4444 ] final  -82.59 input   60.00 | X-H torsion
[ 8370 4172 4171 4168 ] final  124.33 input   60.00 | X-H torsion
[ 8570 3947 3946 3944 ] final  -51.61 input   60.00 | X-H torsion

> <Gold.Protein.ActiveResidues>
 ILE33   TYR34   GLU87   ILE88   VAL90   ASN91   ALA92   ASP94   ASN95   ARG98  
 ILE118  ASN120  LYS123  GLY124  ILE125  ILE141  PHE142  THR147  SER148  SER149 
 ASN150  TYR151  GLY160  GLY161  ARG162  ASN163  GLY164  TYR165  GLY166  ALA167 
 LYS168  LEU169  THR181  THR215  ILE217  ILE317  GLN376  LYS378  MG904  

> <Gold.Protein.RotatedAtoms>
   74.1668   17.6571   31.5834 H   0  0  0  0  0  0  0  0  0  0  0  0  # atno 8370 bound_to 4172
   61.1773   14.3820   35.4545 H   0  0  0  0  0  0  0  0  0  0  0  0  # atno 8545 bound_to 3914
   58.9489   17.5664   29.4484 H   0  0  0  0  0  0  0  0  0  0  0  0  # atno 8550 bound_to 3921
   63.8313   19.8654   29.3635 H   0  0  0  0  0  0  0  0  0  0  0  0  # atno 8556 bound_to 3927
   55.3484   15.2803   33.2657 H   0  0  0  0  0  0  0  0  0  0  0  0  # atno 8570 bound_to 3947
   68.4544   21.6482   31.5734 H   0  0  0  0  0  0  0  0  0  0  0  0  # atno 9505 bound_to 53  
   74.1935   16.8185   30.7362 H   0  0  0  0  0  0  0  0  0  0  0  0  # atno 11670 bound_to 4448
   60.5567   17.6746   29.6749 LP  0  0  0  0  0  0  0  0  0  0  0  0  # atno 11896 bound_to 3921
   59.5971   18.9587   29.9864 LP  0  0  0  0  0  0  0  0  0  0  0  0  # atno 11897 bound_to 3921
   64.1264   21.1919   28.4682 LP  0  0  0  0  0  0  0  0  0  0  0  0  # atno 11898 bound_to 3927
   62.6439   20.5074   28.4547 LP  0  0  0  0  0  0  0  0  0  0  0  0  # atno 11899 bound_to 3927
   61.3868   14.2276   37.0608 LP  0  0  0  0  0  0  0  0  0  0  0  0  # atno 11904 bound_to 3914
   62.5832   14.8404   36.1337 LP  0  0  0  0  0  0  0  0  0  0  0  0  # atno 11905 bound_to 3914
   68.3573   23.2725   31.5568 LP  0  0  0  0  0  0  0  0  0  0  0  0  # atno 11912 bound_to 53  
   67.3943   22.3841   30.5821 LP  0  0  0  0  0  0  0  0  0  0  0  0  # atno 11913 bound_to 53  
   73.5094   17.1665   29.3014 LP  0  0  0  0  0  0  0  0  0  0  0  0  # atno 11922 bound_to 4448
   75.1062   17.4198   29.5306 LP  0  0  0  0  0  0  0  0  0  0  0  0  # atno 11923 bound_to 4448
   75.7073   18.1627   31.7234 LP  0  0  0  0  0  0  0  0  0  0  0  0  # atno 11930 bound_to 4172
   74.5307   18.8639   32.6126 LP  0  0  0  0  0  0  0  0  0  0  0  0  # atno 11931 bound_to 4172

$$$$
