#       Name:                asp ligand
#       Creating user name   ancka
#       Creation time:       Sat Oct 07 11:43:53 2023


#       File generated by GOLD software.
#

@<TRIPOS>MOLECULE
asp ligand
    51    53     1
SMALL
NO_CHARGES


@<TRIPOS>ATOM
      1 ****        -2.1919  -2.1390   3.4212 S.3            1 S1                 0.0000
      2 ****        -1.1533  -3.3145   2.7205 C.arp          1 S1                 0.0000
      3 ****        -1.4492  -3.6698   1.4892 N.ar           1 S1                 0.0000
      4 ****        -2.5642  -2.9768   1.0623 C.arp          1 S1                 0.0000
      5 ****        -3.1122  -2.0930   1.9725 C.ar           1 S1                 0.0000
      6 ****        -4.3205  -1.2214   1.8529 C.3            1 S1                 0.0000
      7 ****        -5.0195  -1.2950   0.1718 S.3            1 S1                 0.0000
      8 ****        -4.6064   0.3255  -0.3701 C.arp          1 S1                 0.0000
      9 ****        -5.5384   1.0484  -1.0991 N.am           1 S1                 0.0000
     10 ****        -5.2281   2.3261  -1.5481 C.arp          1 S1                 0.0000
     11 ****        -6.1648   3.0660  -2.2733 O.2            1 S1                 0.0000
     12 ****        -4.0215   2.8392  -1.2885 N.ar           1 S1                 0.0000
     13 ****        -3.1743   2.0766  -0.5869 C.arp          1 S1                 0.0000
     14 ****        -1.5561   2.7448  -0.3076 S.3            1 S1                 0.0000
     15 ****        -0.7666   1.1846   0.1649 C.3            1 S1                 0.0000
     16 ****         0.6942   1.1464  -0.2058 C.ar           1 S1                 0.0000
     17 ****         1.2298   0.0596  -0.9070 C.ar           1 S1                 0.0000
     18 ****         2.5791   0.0443  -1.2743 C.ar           1 S1                 0.0000
     19 ****         3.4281   1.1070  -0.9346 C.ar           1 S1                 0.0000
     20 ****         2.8900   2.1882  -0.2221 C.ar           1 S1                 0.0000
     21 ****         1.5410   2.2071   0.1407 C.ar           1 S1                 0.0000
     22 ****         1.1534   3.0598   0.6947 None           1 S1                 0.0000
     23 ****         3.5186   3.0322   0.0542 None           1 S1                 0.0000
     24 ****         4.8899   1.1386  -1.3457 C.3            1 S1                 0.0000
     25 ****         5.0229   1.5389  -2.8166 C.3            1 S1                 0.0000
     26 ****         4.5527   0.8048  -3.4802 None           1 S1                 0.0000
     27 ****         4.5480   2.5087  -3.0035 None           1 S1                 0.0000
     28 ****         6.0772   1.6235  -3.1008 None           1 S1                 0.0000
     29 ****         5.6211  -0.1789  -1.0741 C.3            1 S1                 0.0000
     30 ****         5.3031  -0.9759  -1.7547 None           1 S1                 0.0000
     31 ****         5.4464  -0.5206  -0.0481 None           1 S1                 0.0000
     32 ****         6.7011  -0.0495  -1.2053 None           1 S1                 0.0000
     33 ****         5.3989   1.9052  -0.7458 None           1 S1                 0.0000
     34 ****         2.9547  -0.8071  -1.8365 None           1 S1                 0.0000
     35 ****         0.5984  -0.7827  -1.1814 None           1 S1                 0.0000
     36 ****        -1.2734   0.3421  -0.3215 None           1 S1                 0.0000
     37 ****        -0.8825   1.0375   1.2453 None           1 S1                 0.0000
     38 ****        -3.4064   0.8463  -0.1138 N.ar           1 S1                 0.0000
     39 ****        -6.4401   0.6385  -1.2984 None           1 S1                 0.0000
     40 ****        -5.0766  -1.5638   2.5693 None           1 S1                 0.0000
     41 ****        -4.0769  -0.1807   2.0927 None           1 S1                 0.0000
     42 ****        -2.9405  -3.1583   0.0623 None           1 S1                 0.0000
     43 ****        -0.0200  -3.8733   3.5060 C.3            1 S1                 0.0000
     44 ****         0.6274  -3.0675   3.8670 None           1 S1                 0.0000
     45 ****         0.5825  -4.5393   2.8803 None           1 S1                 0.0000
     46 ****        -0.3741  -4.4346   4.3765 None           1 S1                 0.0000
     47 ****        -0.9437  -4.3396   0.9453 None           1 S1                 0.0000
     48 ****        -7.0642   2.6766  -2.4718 None           1 S1                 0.0000
     49 ****        -5.9361   3.9852  -2.5940 None           1 S1                 0.0000
     50 ****        -3.7633   3.7522  -1.6044 None           1 S1                 0.0000
     51 ****        -2.7151   0.3436   0.4053 None           1 S1                 0.0000
@<TRIPOS>BOND
    1    1    2 1     
    2    1    5 1     
    3    2    3 2     
    4    2   43 1     
    5    3    4 1     
    6    4    5 2     
    7    4   42 1     
    8    5    6 1     
    9    6    7 1     
   10    6   40 1     
   11    6   41 1     
   12    7    8 1     
   13    8    9 1     
   14    8   38 2     
   15    9   10 am    
   16    9   39 1     
   17   10   11 2     
   18   10   12 1     
   19   12   13 2     
   20   13   14 1     
   21   13   38 1     
   22   14   15 1     
   23   15   16 1     
   24   15   36 1     
   25   15   37 1     
   26   16   17 ar    
   27   16   21 ar    
   28   17   18 ar    
   29   17   35 1     
   30   18   19 ar    
   31   18   34 1     
   32   19   20 ar    
   33   19   24 1     
   34   20   21 ar    
   35   20   23 1     
   36   21   22 1     
   37   24   25 1     
   38   24   29 1     
   39   24   33 1     
   40   25   26 1     
   41   25   27 1     
   42   25   28 1     
   43   29   30 1     
   44   29   31 1     
   45   29   32 1     
   46   43   44 1     
   47   43   45 1     
   48   43   46 1     
   49    3   47 1     
   50   11   48 1     
   51   11   49 1     
   52   12   50 1     
   53   38   51 1     
@<TRIPOS>SUBSTRUCTURE
      1 S1             1
@<TRIPOS>SET
LONE_PAIRS      STATIC     ATOMS    <user>   **** ""
5 47 48 49 50 51
DONOR_HYDROGENS      STATIC     ATOMS    <user>   **** ""
1 39
ATOM$BLUE        STATIC     ATOMS    COLORGROUP SYSTEM
5 47 48 49 50 51
ATOM$RED        STATIC     ATOMS    COLORGROUP SYSTEM
1 39
