****|SGG-4|sdf|1|dock81
  -GOLD-   9 72311503D 1   1.00000     0.00000

 46 48  0  0  0  0  0  0  0  0  1 V2000
   34.5372   -0.3190   40.4350 S   0  0  0  0  0  0  0  0  0  0  0  0
   35.1546   -1.7346   41.1875 C   0  0  0  0  0  0  0  0  0  0  0  0
   36.4651   -1.8461   41.1958 N   0  0  0  0  0  0  0  0  0  0  0  0
   37.0272   -0.7508   40.5713 C   0  0  0  0  0  0  0  0  0  0  0  0
   36.1394    0.1933   40.0911 C   0  0  0  0  0  0  0  0  0  0  0  0
   36.4010    1.4623   39.3461 C   0  0  0  0  0  0  0  0  0  0  0  0
   38.1893    1.7696   39.1799 S   0  0  0  0  0  0  0  0  0  0  0  0
   38.5972    0.4470   38.0962 C   0  0  0  0  0  0  0  0  0  0  0  0
   39.9302    0.2097   37.7972 N   0  0  0  0  0  0  0  0  0  0  0  0
   40.2742   -0.8224   36.9331 C   0  0  0  0  0  0  0  0  0  0  0  0
   41.6150   -1.0759   36.6351 O   0  0  0  0  0  0  0  0  0  0  0  0
   39.3107   -1.5663   36.3810 N   0  0  0  0  0  0  0  0  0  0  0  0
   38.0482   -1.2699   36.7123 C   0  0  0  0  0  0  0  0  0  0  0  0
   36.7795   -2.2226   35.9212 S   0  0  0  0  0  0  0  0  0  0  0  0
   36.2016   -3.0754   37.4110 C   0  0  0  0  0  0  0  0  0  0  0  0
   34.7426   -2.8174   37.6893 C   0  0  0  0  0  0  0  0  0  0  0  0
   33.9109   -3.8364   38.1685 C   0  0  0  0  0  0  0  0  0  0  0  0
   32.5655   -3.5826   38.4535 C   0  0  0  0  0  0  0  0  0  0  0  0
   32.0160   -2.3089   38.2501 C   0  0  0  0  0  0  0  0  0  0  0  0
   32.8499   -1.2942   37.7590 C   0  0  0  0  0  0  0  0  0  0  0  0
   34.1954   -1.5451   37.4790 C   0  0  0  0  0  0  0  0  0  0  0  0
   34.8167   -0.7372   37.0975 H   0  0  0  0  0  0  0  0  0  0  0  0
   32.4584   -0.2926   37.5935 H   0  0  0  0  0  0  0  0  0  0  0  0
   30.5682   -1.9897   38.5798 C   0  0  0  0  0  0  0  0  0  0  0  0
   30.2349   -0.5496   38.1841 C   0  0  0  0  0  0  0  0  0  0  0  0
   30.8268    0.1745   38.7548 H   0  0  0  0  0  0  0  0  0  0  0  0
   30.4356   -0.3788   37.1204 H   0  0  0  0  0  0  0  0  0  0  0  0
   29.1760   -0.3345   38.3626 H   0  0  0  0  0  0  0  0  0  0  0  0
   30.2138   -2.2446   40.0473 C   0  0  0  0  0  0  0  0  0  0  0  0
   30.6735   -1.5100   40.7171 H   0  0  0  0  0  0  0  0  0  0  0  0
   30.5411   -3.2412   40.3629 H   0  0  0  0  0  0  0  0  0  0  0  0
   29.1296   -2.1857   40.1934 H   0  0  0  0  0  0  0  0  0  0  0  0
   29.9261   -2.6541   37.9857 H   0  0  0  0  0  0  0  0  0  0  0  0
   31.9554   -4.3933   38.8440 H   0  0  0  0  0  0  0  0  0  0  0  0
   34.3057   -4.8367   38.3325 H   0  0  0  0  0  0  0  0  0  0  0  0
   36.7863   -2.7536   38.2815 H   0  0  0  0  0  0  0  0  0  0  0  0
   36.3763   -4.1520   37.2978 H   0  0  0  0  0  0  0  0  0  0  0  0
   37.6431   -0.3017   37.5428 N   0  0  0  0  0  0  0  0  0  0  0  0
   40.6441    0.7918   38.2125 H   0  0  0  0  0  0  0  0  0  0  0  0
   35.9578    1.3839   38.3463 H   0  0  0  0  0  0  0  0  0  0  0  0
   35.9380    2.3157   39.8532 H   0  0  0  0  0  0  0  0  0  0  0  0
   38.1065   -0.6914   40.4929 H   0  0  0  0  0  0  0  0  0  0  0  0
   34.2227   -2.7436   41.7595 C   0  0  0  0  0  0  0  0  0  0  0  0
   33.5542   -2.2746   42.4889 H   0  0  0  0  0  0  0  0  0  0  0  0
   34.7849   -3.5314   42.2707 H   0  0  0  0  0  0  0  0  0  0  0  0
   33.6028   -3.2023   40.9827 H   0  0  0  0  0  0  0  0  0  0  0  0
  1  2  1  0  0  0  0
  1  5  1  0  0  0  0
  2  3  2  0  0  0  0
  2 43  1  0  0  0  0
  3  4  1  0  0  0  0
  4  5  2  0  0  0  0
  4 42  1  0  0  0  0
  5  6  1  0  0  0  0
  6  7  1  0  0  0  0
  6 40  1  0  0  0  0
  6 41  1  0  0  0  0
  7  8  1  0  0  0  0
  8  9  1  0  0  0  0
  8 38  2  0  0  0  0
  9 10  1  0  0  0  0
  9 39  1  0  0  0  0
 10 11  2  0  0  0  0
 10 12  1  0  0  0  0
 12 13  2  0  0  0  0
 13 14  1  0  0  0  0
 13 38  1  0  0  0  0
 14 15  1  0  0  0  0
 15 16  1  0  0  0  0
 15 36  1  0  0  0  0
 15 37  1  0  0  0  0
 16 17  1  0  0  0  0
 16 21  2  0  0  0  0
 17 18  2  0  0  0  0
 17 35  1  0  0  0  0
 18 19  1  0  0  0  0
 18 34  1  0  0  0  0
 19 20  2  0  0  0  0
 19 24  1  0  0  0  0
 20 21  1  0  0  0  0
 20 23  1  0  0  0  0
 21 22  1  0  0  0  0
 24 25  1  0  0  0  0
 24 29  1  0  0  0  0
 24 33  1  0  0  0  0
 25 26  1  0  0  0  0
 25 27  1  0  0  0  0
 25 28  1  0  0  0  0
 29 30  1  0  0  0  0
 29 31  1  0  0  0  0
 29 32  1  0  0  0  0
 43 44  1  0  0  0  0
 43 45  1  0  0  0  0
 43 46  1  0  0  0  0
M  END
> <Gold.Goldscore.Fitness>
67.7756

> <Gold.Goldscore.External.HBond>
1.4847

> <Gold.Protein.ActiveResidues>
 GLU87   ILE88   VAL90   ASN91   ALA92   ASP94   ASN95   ARG98   ILE118  ASN120 
 LYS123  GLY124  ILE125  ILE141  PHE142  THR147  SER148  SER149  ASN150  TYR151 
 GLY160  GLY161  ARG162  ASN163  GLY164  TYR165  GLY166  ALA167  LYS168  LEU169 
 THR181  THR215  ILE217  ILE317  GLN376  LYS378  ILE33   TYR34   MG903  

> <Gold.Goldscore.Internal.HBond>
0.0

> <Gold.Goldscore.Internal.Torsion.Weighted>
-4.6232

> <Gold.Protein.RotatedTorsions>
[ 8833 2752 2751 2750 ] final  -92.65 input   60.00 | X-H torsion
[ 6906  969  968  965 ] final -179.89 input   59.99 | X-H torsion
[ 6910  975  974  971 ] final  -12.12 input   60.00 | X-H torsion
[ 6897  962  961  958 ] final   71.11 input   60.00 | X-H torsion
[ 9084 2997 2996 2994 ] final  -38.60 input   60.00 | X-H torsion
[ 7406 1497 1496 1493 ] final  170.76 input   60.00 | X-H torsion
[ 7140 1220 1219 1216 ] final  115.27 input   60.00 | X-H torsion
[ 6926  995  994  992 ] final   25.13 input   60.0

> <Gold.Goldscore.Constraint.Score>
0.0

> <Gold.Id.Protein>
1ZXM|1ZXM_protein|mol2

> <Gold.Protein.RotatedAtoms>
   40.6750    3.3830   41.8637 H   0  0  0  0  0  0  0  0  0  0  0  0  # atno 6897 bound_to 962 
   42.5663   -2.5035   38.2571 H   0  0  0  0  0  0  0  0  0  0  0  0  # atno 6906 bound_to 969 
   38.8111   -4.3840   40.0676 H   0  0  0  0  0  0  0  0  0  0  0  0  # atno 6910 bound_to 975 
   45.8911    1.1244   38.6740 H   0  0  0  0  0  0  0  0  0  0  0  0  # atno 6926 bound_to 995 
   28.0475    0.1168   43.0607 H   0  0  0  0  0  0  0  0  0  0  0  0  # atno 7140 bound_to 1220
   28.2838   -0.9017   41.0

> <Gold.Version>
5.3.0

> <Gold.Goldscore.Internal.Correction>
-0.0166

> <Gold.Goldscore.Internal.Vdw>
-1.3472

> <Gold.Goldscore.Internal.Vdw.Weighted>
-1.3472

> <Gold.Goldscore.External.HBond.Weighted>
1.4847

> <Gold.Goldscore.External.Vdw.Weighted>
72.2447

> <Gold.Goldscore.Internal.HBond.Weighted>
0.0

> <Gold.Goldscore.Hbonds>
donor molecule, donor type, donor heavy atom, donor atom, acceptor molecule, acceptor atom, score
      L1  H     1    27       P1   757  0.74

> <Gold.Goldscore.External.Vdw>
52.5416

> <Gold.Goldscore.Internal.Torsion>
-4.6232

> <Gold.Goldscore.Internal.Correction.Weighted>
-0.0166

> <Gold.Version>
5.3.0

> <Gold.Id.Protein>
1ZXM|1ZXM_protein|mol2

> <Gold.ASP.Fitness>
30.7445

> <Gold.ASP.ASP>
34.3680

> <Gold.ASP.Map>
-171.8400

> <Gold.ASP.DEClash>
1.8554

> <Gold.ASP.DEInternal>
1.7681

> <Gold.ASP.Internal.Correction>
0.1091

> <Gold.Protein.RotatedTorsions>
[ 8924 2752 2751 2750 ] final  119.43 input   60.00 | X-H torsion
[ 6908  969  968  965 ] final -145.08 input   59.99 | X-H torsion
[ 6912  975  974  971 ] final -138.31 input   60.00 | X-H torsion
[ 6899  962  961  958 ] final  -47.86 input   60.00 | X-H torsion
[ 9165 2997 2996 2994 ] final  135.55 input   60.00 | X-H torsion
[ 7410 1497 1496 1493 ] final  -69.68 input   60.00 | X-H torsion
[ 7137 1220 1219 1216 ] final   62.71 input   60.00 | X-H torsion
[ 6928  995  994  992 ] final -123.57 input   60.00 | X-H torsion

> <Gold.Protein.ActiveResidues>
 GLU87   ILE88   VAL90   ASN91   ALA92   ASP94   ASN95   ARG98   ILE118  ASN120 
 LYS123  GLY124  ILE125  ILE141  PHE142  THR147  SER148  SER149  ASN150  TYR151 
 GLY160  GLY161  ARG162  ASN163  GLY164  TYR165  GLY166  ALA167  LYS168  LEU169 
 THR181  THR215  ILE217  ILE317  GLN376  LYS378  ILE33   TYR34   MG903  

> <Gold.Protein.RotatedAtoms>
   41.9513    4.3680   41.8144 H   0  0  0  0  0  0  0  0  0  0  0  0  # atno 6899 bound_to 962 
   42.7677   -2.8545   38.6444 H   0  0  0  0  0  0  0  0  0  0  0  0  # atno 6908 bound_to 969 
   37.3403   -4.3618   40.8578 H   0  0  0  0  0  0  0  0  0  0  0  0  # atno 6912 bound_to 975 
   46.6866    1.5666   40.2305 H   0  0  0  0  0  0  0  0  0  0  0  0  # atno 6928 bound_to 995 
   27.2199    0.0826   43.0940 H   0  0  0  0  0  0  0  0  0  0  0  0  # atno 7137 bound_to 1220
   27.6380    0.2135   42.0366 H   0  0  0  0  0  0  0  0  0  0  0  0  # atno 7410 bound_to 1497
   43.4059    0.7025   30.2843 H   0  0  0  0  0  0  0  0  0  0  0  0  # atno 8924 bound_to 2752
   43.5505   -0.8244   30.9130 H   0  0  0  0  0  0  0  0  0  0  0  0  # atno 8925 bound_to 2752
   44.0580   -0.5135   29.3660 H   0  0  0  0  0  0  0  0  0  0  0  0  # atno 8926 bound_to 2752
   34.4361   -5.2537   45.1087 H   0  0  0  0  0  0  0  0  0  0  0  0  # atno 9165 bound_to 2997
   41.3731   -2.0719   38.3430 LP  0  0  0  0  0  0  0  0  0  0  0  0  # atno 11896 bound_to 969 
   41.5056   -3.0341   39.6558 LP  0  0  0  0  0  0  0  0  0  0  0  0  # atno 11897 bound_to 969 
   38.0721   -5.7368   40.3867 LP  0  0  0  0  0  0  0  0  0  0  0  0  # atno 11898 bound_to 975 
   38.7736   -4.2923   40.0902 LP  0  0  0  0  0  0  0  0  0  0  0  0  # atno 11899 bound_to 975 
   40.8255    4.5779   42.9705 LP  0  0  0  0  0  0  0  0  0  0  0  0  # atno 11904 bound_to 962 
   40.6586    3.3813   41.8719 LP  0  0  0  0  0  0  0  0  0  0  0  0  # atno 11905 bound_to 962 
   34.5621   -4.3129   43.7869 LP  0  0  0  0  0  0  0  0  0  0  0  0  # atno 11912 bound_to 2997
   33.7868   -3.7615   45.1142 LP  0  0  0  0  0  0  0  0  0  0  0  0  # atno 11913 bound_to 2997
   28.2856   -0.9107   41.0545 LP  0  0  0  0  0  0  0  0  0  0  0  0  # atno 11922 bound_to 1497
   26.7199   -1.0205   41.5052 LP  0  0  0  0  0  0  0  0  0  0  0  0  # atno 11923 bound_to 1497
   27.1863   -0.1855   44.6986 LP  0  0  0  0  0  0  0  0  0  0  0  0  # atno 11930 bound_to 1220
   28.6147   -0.0087   43.9271 LP  0  0  0  0  0  0  0  0  0  0  0  0  # atno 11931 bound_to 1220

$$$$
****|SGG-4|sdf|1|dock68
  -GOLD-   9 72311493D 1   1.00000     0.00000

 46 48  0  0  0  0  0  0  0  0  1 V2000
   35.5156   -6.1476   37.4267 S   0  0  0  0  0  0  0  0  0  0  0  0
   35.8032   -6.8751   38.9562 C   0  0  0  0  0  0  0  0  0  0  0  0
   35.5809   -6.1062   40.0000 N   0  0  0  0  0  0  0  0  0  0  0  0
   35.1566   -4.8625   39.5772 C   0  0  0  0  0  0  0  0  0  0  0  0
   35.0555   -4.6905   38.2097 C   0  0  0  0  0  0  0  0  0  0  0  0
   34.6657   -3.4810   37.4227 C   0  0  0  0  0  0  0  0  0  0  0  0
   36.0554   -2.8823   36.4075 S   0  0  0  0  0  0  0  0  0  0  0  0
   36.8345   -1.8427   37.5918 C   0  0  0  0  0  0  0  0  0  0  0  0
   37.1844   -2.3726   38.8245 N   0  0  0  0  0  0  0  0  0  0  0  0
   37.7896   -1.5656   39.7798 C   0  0  0  0  0  0  0  0  0  0  0  0
   38.1558   -2.0936   41.0200 O   0  0  0  0  0  0  0  0  0  0  0  0
   38.0109   -0.2761   39.5065 N   0  0  0  0  0  0  0  0  0  0  0  0
   37.6372    0.1625   38.2983 C   0  0  0  0  0  0  0  0  0  0  0  0
   37.8774    1.8891   37.9756 S   0  0  0  0  0  0  0  0  0  0  0  0
   36.5237    2.4854   39.0210 C   0  0  0  0  0  0  0  0  0  0  0  0
   35.3784    1.5074   39.0884 C   0  0  0  0  0  0  0  0  0  0  0  0
   35.1471    0.7495   40.2424 C   0  0  0  0  0  0  0  0  0  0  0  0
   34.0648   -0.1337   40.3093 C   0  0  0  0  0  0  0  0  0  0  0  0
   33.1987   -0.2924   39.2183 C   0  0  0  0  0  0  0  0  0  0  0  0
   33.4410    0.4602   38.0602 C   0  0  0  0  0  0  0  0  0  0  0  0
   34.5186    1.3468   37.9942 C   0  0  0  0  0  0  0  0  0  0  0  0
   34.6812    1.9157   37.0809 H   0  0  0  0  0  0  0  0  0  0  0  0
   32.7865    0.3659   37.1962 H   0  0  0  0  0  0  0  0  0  0  0  0
   31.9951   -1.2174   39.2681 C   0  0  0  0  0  0  0  0  0  0  0  0
   32.4279   -2.6384   39.6355 C   0  0  0  0  0  0  0  0  0  0  0  0
   33.0910   -3.0687   38.8768 H   0  0  0  0  0  0  0  0  0  0  0  0
   32.9640   -2.6502   40.5912 H   0  0  0  0  0  0  0  0  0  0  0  0
   31.5570   -3.2951   39.7334 H   0  0  0  0  0  0  0  0  0  0  0  0
   31.1804   -1.2169   37.9717 C   0  0  0  0  0  0  0  0  0  0  0  0
   31.7068   -1.7185   37.1527 H   0  0  0  0  0  0  0  0  0  0  0  0
   30.9529   -0.1944   37.6514 H   0  0  0  0  0  0  0  0  0  0  0  0
   30.2300   -1.7418   38.1186 H   0  0  0  0  0  0  0  0  0  0  0  0
   31.3205   -0.8612   40.0584 H   0  0  0  0  0  0  0  0  0  0  0  0
   33.9046   -0.6900   41.2295 H   0  0  0  0  0  0  0  0  0  0  0  0
   35.8037    0.8461   41.1044 H   0  0  0  0  0  0  0  0  0  0  0  0
   36.1454    3.4420   38.6403 H   0  0  0  0  0  0  0  0  0  0  0  0
   36.9090    2.6805   40.0289 H   0  0  0  0  0  0  0  0  0  0  0  0
   37.0613   -0.5561   37.3271 N   0  0  0  0  0  0  0  0  0  0  0  0
   36.9959   -3.3460   39.0187 H   0  0  0  0  0  0  0  0  0  0  0  0
   33.8287   -3.7415   36.7642 H   0  0  0  0  0  0  0  0  0  0  0  0
   34.3341   -2.6740   38.0850 H   0  0  0  0  0  0  0  0  0  0  0  0
   34.9315   -4.1070   40.3209 H   0  0  0  0  0  0  0  0  0  0  0  0
   36.2886   -8.2792   39.0362 C   0  0  0  0  0  0  0  0  0  0  0  0
   35.6077   -8.9489   38.5008 H   0  0  0  0  0  0  0  0  0  0  0  0
   36.3350   -8.6050   40.0802 H   0  0  0  0  0  0  0  0  0  0  0  0
   37.2828   -8.3855   38.5908 H   0  0  0  0  0  0  0  0  0  0  0  0
  1  2  1  0  0  0  0
  1  5  1  0  0  0  0
  2  3  2  0  0  0  0
  2 43  1  0  0  0  0
  3  4  1  0  0  0  0
  4  5  2  0  0  0  0
  4 42  1  0  0  0  0
  5  6  1  0  0  0  0
  6  7  1  0  0  0  0
  6 40  1  0  0  0  0
  6 41  1  0  0  0  0
  7  8  1  0  0  0  0
  8  9  1  0  0  0  0
  8 38  2  0  0  0  0
  9 10  1  0  0  0  0
  9 39  1  0  0  0  0
 10 11  2  0  0  0  0
 10 12  1  0  0  0  0
 12 13  2  0  0  0  0
 13 14  1  0  0  0  0
 13 38  1  0  0  0  0
 14 15  1  0  0  0  0
 15 16  1  0  0  0  0
 15 36  1  0  0  0  0
 15 37  1  0  0  0  0
 16 17  1  0  0  0  0
 16 21  2  0  0  0  0
 17 18  2  0  0  0  0
 17 35  1  0  0  0  0
 18 19  1  0  0  0  0
 18 34  1  0  0  0  0
 19 20  2  0  0  0  0
 19 24  1  0  0  0  0
 20 21  1  0  0  0  0
 20 23  1  0  0  0  0
 21 22  1  0  0  0  0
 24 25  1  0  0  0  0
 24 29  1  0  0  0  0
 24 33  1  0  0  0  0
 25 26  1  0  0  0  0
 25 27  1  0  0  0  0
 25 28  1  0  0  0  0
 29 30  1  0  0  0  0
 29 31  1  0  0  0  0
 29 32  1  0  0  0  0
 43 44  1  0  0  0  0
 43 45  1  0  0  0  0
 43 46  1  0  0  0  0
M  END
> <Gold.Goldscore.Fitness>
67.7756

> <Gold.Goldscore.External.HBond>
1.4847

> <Gold.Protein.ActiveResidues>
 GLU87   ILE88   VAL90   ASN91   ALA92   ASP94   ASN95   ARG98   ILE118  ASN120 
 LYS123  GLY124  ILE125  ILE141  PHE142  THR147  SER148  SER149  ASN150  TYR151 
 GLY160  GLY161  ARG162  ASN163  GLY164  TYR165  GLY166  ALA167  LYS168  LEU169 
 THR181  THR215  ILE217  ILE317  GLN376  LYS378  ILE33   TYR34   MG903  

> <Gold.Goldscore.Internal.HBond>
0.0

> <Gold.Goldscore.Internal.Torsion.Weighted>
-4.6232

> <Gold.Protein.RotatedTorsions>
[ 8833 2752 2751 2750 ] final  -92.65 input   60.00 | X-H torsion
[ 6906  969  968  965 ] final -179.89 input   59.99 | X-H torsion
[ 6910  975  974  971 ] final  -12.12 input   60.00 | X-H torsion
[ 6897  962  961  958 ] final   71.11 input   60.00 | X-H torsion
[ 9084 2997 2996 2994 ] final  -38.60 input   60.00 | X-H torsion
[ 7406 1497 1496 1493 ] final  170.76 input   60.00 | X-H torsion
[ 7140 1220 1219 1216 ] final  115.27 input   60.00 | X-H torsion
[ 6926  995  994  992 ] final   25.13 input   60.0

> <Gold.Goldscore.Constraint.Score>
0.0

> <Gold.Id.Protein>
1ZXM|1ZXM_protein|mol2

> <Gold.Protein.RotatedAtoms>
   40.6750    3.3830   41.8637 H   0  0  0  0  0  0  0  0  0  0  0  0  # atno 6897 bound_to 962 
   42.5663   -2.5035   38.2571 H   0  0  0  0  0  0  0  0  0  0  0  0  # atno 6906 bound_to 969 
   38.8111   -4.3840   40.0676 H   0  0  0  0  0  0  0  0  0  0  0  0  # atno 6910 bound_to 975 
   45.8911    1.1244   38.6740 H   0  0  0  0  0  0  0  0  0  0  0  0  # atno 6926 bound_to 995 
   28.0475    0.1168   43.0607 H   0  0  0  0  0  0  0  0  0  0  0  0  # atno 7140 bound_to 1220
   28.2838   -0.9017   41.0

> <Gold.Version>
5.3.0

> <Gold.Goldscore.Internal.Correction>
-0.0166

> <Gold.Goldscore.Internal.Vdw>
-1.3472

> <Gold.Goldscore.Internal.Vdw.Weighted>
-1.3472

> <Gold.Goldscore.External.HBond.Weighted>
1.4847

> <Gold.Goldscore.External.Vdw.Weighted>
72.2447

> <Gold.Goldscore.Internal.HBond.Weighted>
0.0

> <Gold.Goldscore.Hbonds>
donor molecule, donor type, donor heavy atom, donor atom, acceptor molecule, acceptor atom, score
      L1  H     1    27       P1   757  0.74

> <Gold.Goldscore.External.Vdw>
52.5416

> <Gold.Goldscore.Internal.Torsion>
-4.6232

> <Gold.Goldscore.Internal.Correction.Weighted>
-0.0166

> <Gold.Version>
5.3.0

> <Gold.Id.Protein>
1ZXM|1ZXM_protein|mol2

> <Gold.ASP.Fitness>
30.5740

> <Gold.ASP.ASP>
33.0140

> <Gold.ASP.Map>
-165.0700

> <Gold.ASP.DEClash>
1.8127

> <Gold.ASP.DEInternal>
0.6272

> <Gold.ASP.Internal.Correction>
0.1091

> <Gold.Protein.RotatedTorsions>
[ 8924 2752 2751 2750 ] final -154.93 input   60.00 | X-H torsion
[ 6908  969  968  965 ] final -160.29 input   59.99 | X-H torsion
[ 6912  975  974  971 ] final    9.35 input   60.00 | X-H torsion
[ 6899  962  961  958 ] final   98.11 input   60.00 | X-H torsion
[ 9165 2997 2996 2994 ] final  113.60 input   60.00 | X-H torsion
[ 7410 1497 1496 1493 ] final   37.57 input   60.00 | X-H torsion
[ 7137 1220 1219 1216 ] final  166.14 input   60.00 | X-H torsion
[ 6928  995  994  992 ] final   91.66 input   60.00 | X-H torsion

> <Gold.Protein.ActiveResidues>
 GLU87   ILE88   VAL90   ASN91   ALA92   ASP94   ASN95   ARG98   ILE118  ASN120 
 LYS123  GLY124  ILE125  ILE141  PHE142  THR147  SER148  SER149  ASN150  TYR151 
 GLY160  GLY161  ARG162  ASN163  GLY164  TYR165  GLY166  ALA167  LYS168  LEU169 
 THR181  THR215  ILE217  ILE317  GLN376  LYS378  ILE33   TYR34   MG903  

> <Gold.Protein.RotatedAtoms>
   40.4284    3.5100   42.2016 H   0  0  0  0  0  0  0  0  0  0  0  0  # atno 6899 bound_to 962 
   42.7168   -2.7027   38.4552 H   0  0  0  0  0  0  0  0  0  0  0  0  # atno 6908 bound_to 969 
   38.8851   -4.7200   40.0094 H   0  0  0  0  0  0  0  0  0  0  0  0  # atno 6912 bound_to 975 
   45.1502    1.2897   39.3657 H   0  0  0  0  0  0  0  0  0  0  0  0  # atno 6928 bound_to 995 
   28.5741    0.0357   43.6631 H   0  0  0  0  0  0  0  0  0  0  0  0  # atno 7137 bound_to 1220
   26.6636   -0.8622   41.6292 H   0  0  0  0  0  0  0  0  0  0  0  0  # atno 7410 bound_to 1497
   43.3592   -0.3213   31.0857 H   0  0  0  0  0  0  0  0  0  0  0  0  # atno 8924 bound_to 2752
   44.0377   -0.9584   29.7142 H   0  0  0  0  0  0  0  0  0  0  0  0  # atno 8925 bound_to 2752
   43.6175    0.6442   29.7635 H   0  0  0  0  0  0  0  0  0  0  0  0  # atno 8926 bound_to 2752
   34.5898   -5.3131   44.7927 H   0  0  0  0  0  0  0  0  0  0  0  0  # atno 9165 bound_to 2997
   41.1990   -2.1190   38.5155 LP  0  0  0  0  0  0  0  0  0  0  0  0  # atno 11896 bound_to 969 
   41.7309   -3.1399   39.6738 LP  0  0  0  0  0  0  0  0  0  0  0  0  # atno 11897 bound_to 969 
   37.6052   -4.0214   40.7319 LP  0  0  0  0  0  0  0  0  0  0  0  0  # atno 11898 bound_to 975 
   37.6848   -5.6470   40.5994 LP  0  0  0  0  0  0  0  0  0  0  0  0  # atno 11899 bound_to 975 
   41.8320    4.0424   41.5736 LP  0  0  0  0  0  0  0  0  0  0  0  0  # atno 11904 bound_to 962 
   41.1859    4.7810   42.8788 LP  0  0  0  0  0  0  0  0  0  0  0  0  # atno 11905 bound_to 962 
   34.4004   -3.9991   43.8517 LP  0  0  0  0  0  0  0  0  0  0  0  0  # atno 11912 bound_to 2997
   33.7939   -4.0154   45.3677 LP  0  0  0  0  0  0  0  0  0  0  0  0  # atno 11913 bound_to 2997
   27.8365    0.2123   41.9720 LP  0  0  0  0  0  0  0  0  0  0  0  0  # atno 11922 bound_to 1497
   28.1503   -1.0602   40.9979 LP  0  0  0  0  0  0  0  0  0  0  0  0  # atno 11923 bound_to 1497
   27.0006    0.0472   43.2487 LP  0  0  0  0  0  0  0  0  0  0  0  0  # atno 11930 bound_to 1220
   27.4366   -0.1942   44.8038 LP  0  0  0  0  0  0  0  0  0  0  0  0  # atno 11931 bound_to 1220

$$$$
****|SGG-4|sdf|1|dock56
  -GOLD-   9 72311483D 1   1.00000     0.00000

 46 48  0  0  0  0  0  0  0  0  1 V2000
   35.4191   -5.8400   37.3641 S   0  0  0  0  0  0  0  0  0  0  0  0
   36.0166   -6.6087   38.7795 C   0  0  0  0  0  0  0  0  0  0  0  0
   35.8618   -5.9348   39.8984 N   0  0  0  0  0  0  0  0  0  0  0  0
   35.2331   -4.7347   39.6331 C   0  0  0  0  0  0  0  0  0  0  0  0
   34.9095   -4.5009   38.3101 C   0  0  0  0  0  0  0  0  0  0  0  0
   34.2646   -3.3099   37.6778 C   0  0  0  0  0  0  0  0  0  0  0  0
   35.2848   -2.6558   36.3172 S   0  0  0  0  0  0  0  0  0  0  0  0
   36.5377   -1.8678   37.2657 C   0  0  0  0  0  0  0  0  0  0  0  0
   37.4475   -2.6507   37.9599 N   0  0  0  0  0  0  0  0  0  0  0  0
   38.4381   -2.0487   38.7260 C   0  0  0  0  0  0  0  0  0  0  0  0
   39.3658   -2.8292   39.4194 O   0  0  0  0  0  0  0  0  0  0  0  0
   38.4912   -0.7153   38.8019 N   0  0  0  0  0  0  0  0  0  0  0  0
   37.5730   -0.0296   38.1104 C   0  0  0  0  0  0  0  0  0  0  0  0
   37.6162    1.7352   38.2740 S   0  0  0  0  0  0  0  0  0  0  0  0
   36.4174    1.8471   39.6271 C   0  0  0  0  0  0  0  0  0  0  0  0
   35.1628    1.0591   39.3477 C   0  0  0  0  0  0  0  0  0  0  0  0
   34.8098   -0.0367   40.1441 C   0  0  0  0  0  0  0  0  0  0  0  0
   33.6292   -0.7448   39.8982 C   0  0  0  0  0  0  0  0  0  0  0  0
   32.7826   -0.3845   38.8404 C   0  0  0  0  0  0  0  0  0  0  0  0
   33.1460    0.7067   38.0381 C   0  0  0  0  0  0  0  0  0  0  0  0
   34.3224    1.4181   38.2861 C   0  0  0  0  0  0  0  0  0  0  0  0
   34.5778    2.2594   37.6448 H   0  0  0  0  0  0  0  0  0  0  0  0
   32.5104    1.0171   37.2113 H   0  0  0  0  0  0  0  0  0  0  0  0
   31.4770   -1.1101   38.5651 C   0  0  0  0  0  0  0  0  0  0  0  0
   30.3685   -0.1087   38.2338 C   0  0  0  0  0  0  0  0  0  0  0  0
   30.1565    0.5552   39.0791 H   0  0  0  0  0  0  0  0  0  0  0  0
   30.6492    0.5187   37.3802 H   0  0  0  0  0  0  0  0  0  0  0  0
   29.4411   -0.6300   37.9739 H   0  0  0  0  0  0  0  0  0  0  0  0
   31.0487   -2.0346   39.7079 C   0  0  0  0  0  0  0  0  0  0  0  0
   30.7134   -1.4757   40.5881 H   0  0  0  0  0  0  0  0  0  0  0  0
   31.8733   -2.6869   40.0154 H   0  0  0  0  0  0  0  0  0  0  0  0
   30.2166   -2.6728   39.3904 H   0  0  0  0  0  0  0  0  0  0  0  0
   31.6194   -1.7510   37.6844 H   0  0  0  0  0  0  0  0  0  0  0  0
   33.3774   -1.5772   40.5506 H   0  0  0  0  0  0  0  0  0  0  0  0
   35.4478   -0.3445   40.9698 H   0  0  0  0  0  0  0  0  0  0  0  0
   36.1414    2.8943   39.8020 H   0  0  0  0  0  0  0  0  0  0  0  0
   36.8862    1.4890   40.5514 H   0  0  0  0  0  0  0  0  0  0  0  0
   36.5998   -0.5386   37.3454 N   0  0  0  0  0  0  0  0  0  0  0  0
   37.3829   -3.6573   37.9024 H   0  0  0  0  0  0  0  0  0  0  0  0
   33.2866   -3.6059   37.2804 H   0  0  0  0  0  0  0  0  0  0  0  0
   34.1019   -2.5163   38.4151 H   0  0  0  0  0  0  0  0  0  0  0  0
   35.0324   -4.0576   40.4552 H   0  0  0  0  0  0  0  0  0  0  0  0
   36.6733   -7.9405   38.6859 C   0  0  0  0  0  0  0  0  0  0  0  0
   36.0054   -8.6615   38.2034 H   0  0  0  0  0  0  0  0  0  0  0  0
   36.9135   -8.3155   39.6857 H   0  0  0  0  0  0  0  0  0  0  0  0
   37.5955   -7.8920   38.0982 H   0  0  0  0  0  0  0  0  0  0  0  0
  1  2  1  0  0  0  0
  1  5  1  0  0  0  0
  2  3  2  0  0  0  0
  2 43  1  0  0  0  0
  3  4  1  0  0  0  0
  4  5  2  0  0  0  0
  4 42  1  0  0  0  0
  5  6  1  0  0  0  0
  6  7  1  0  0  0  0
  6 40  1  0  0  0  0
  6 41  1  0  0  0  0
  7  8  1  0  0  0  0
  8  9  1  0  0  0  0
  8 38  2  0  0  0  0
  9 10  1  0  0  0  0
  9 39  1  0  0  0  0
 10 11  2  0  0  0  0
 10 12  1  0  0  0  0
 12 13  2  0  0  0  0
 13 14  1  0  0  0  0
 13 38  1  0  0  0  0
 14 15  1  0  0  0  0
 15 16  1  0  0  0  0
 15 36  1  0  0  0  0
 15 37  1  0  0  0  0
 16 17  1  0  0  0  0
 16 21  2  0  0  0  0
 17 18  2  0  0  0  0
 17 35  1  0  0  0  0
 18 19  1  0  0  0  0
 18 34  1  0  0  0  0
 19 20  2  0  0  0  0
 19 24  1  0  0  0  0
 20 21  1  0  0  0  0
 20 23  1  0  0  0  0
 21 22  1  0  0  0  0
 24 25  1  0  0  0  0
 24 29  1  0  0  0  0
 24 33  1  0  0  0  0
 25 26  1  0  0  0  0
 25 27  1  0  0  0  0
 25 28  1  0  0  0  0
 29 30  1  0  0  0  0
 29 31  1  0  0  0  0
 29 32  1  0  0  0  0
 43 44  1  0  0  0  0
 43 45  1  0  0  0  0
 43 46  1  0  0  0  0
M  END
> <Gold.Goldscore.Fitness>
67.7756

> <Gold.Goldscore.External.HBond>
1.4847

> <Gold.Protein.ActiveResidues>
 GLU87   ILE88   VAL90   ASN91   ALA92   ASP94   ASN95   ARG98   ILE118  ASN120 
 LYS123  GLY124  ILE125  ILE141  PHE142  THR147  SER148  SER149  ASN150  TYR151 
 GLY160  GLY161  ARG162  ASN163  GLY164  TYR165  GLY166  ALA167  LYS168  LEU169 
 THR181  THR215  ILE217  ILE317  GLN376  LYS378  ILE33   TYR34   MG903  

> <Gold.Goldscore.Internal.HBond>
0.0

> <Gold.Goldscore.Internal.Torsion.Weighted>
-4.6232

> <Gold.Protein.RotatedTorsions>
[ 8833 2752 2751 2750 ] final  -92.65 input   60.00 | X-H torsion
[ 6906  969  968  965 ] final -179.89 input   59.99 | X-H torsion
[ 6910  975  974  971 ] final  -12.12 input   60.00 | X-H torsion
[ 6897  962  961  958 ] final   71.11 input   60.00 | X-H torsion
[ 9084 2997 2996 2994 ] final  -38.60 input   60.00 | X-H torsion
[ 7406 1497 1496 1493 ] final  170.76 input   60.00 | X-H torsion
[ 7140 1220 1219 1216 ] final  115.27 input   60.00 | X-H torsion
[ 6926  995  994  992 ] final   25.13 input   60.0

> <Gold.Goldscore.Constraint.Score>
0.0

> <Gold.Id.Protein>
1ZXM|1ZXM_protein|mol2

> <Gold.Protein.RotatedAtoms>
   40.6750    3.3830   41.8637 H   0  0  0  0  0  0  0  0  0  0  0  0  # atno 6897 bound_to 962 
   42.5663   -2.5035   38.2571 H   0  0  0  0  0  0  0  0  0  0  0  0  # atno 6906 bound_to 969 
   38.8111   -4.3840   40.0676 H   0  0  0  0  0  0  0  0  0  0  0  0  # atno 6910 bound_to 975 
   45.8911    1.1244   38.6740 H   0  0  0  0  0  0  0  0  0  0  0  0  # atno 6926 bound_to 995 
   28.0475    0.1168   43.0607 H   0  0  0  0  0  0  0  0  0  0  0  0  # atno 7140 bound_to 1220
   28.2838   -0.9017   41.0

> <Gold.Version>
5.3.0

> <Gold.Goldscore.Internal.Correction>
-0.0166

> <Gold.Goldscore.Internal.Vdw>
-1.3472

> <Gold.Goldscore.Internal.Vdw.Weighted>
-1.3472

> <Gold.Goldscore.External.HBond.Weighted>
1.4847

> <Gold.Goldscore.External.Vdw.Weighted>
72.2447

> <Gold.Goldscore.Internal.HBond.Weighted>
0.0

> <Gold.Goldscore.Hbonds>
donor molecule, donor type, donor heavy atom, donor atom, acceptor molecule, acceptor atom, score
      L1  H     1    27       P1   757  0.74

> <Gold.Goldscore.External.Vdw>
52.5416

> <Gold.Goldscore.Internal.Torsion>
-4.6232

> <Gold.Goldscore.Internal.Correction.Weighted>
-0.0166

> <Gold.Version>
5.3.0

> <Gold.Id.Protein>
1ZXM|1ZXM_protein|mol2

> <Gold.ASP.Fitness>
30.1867

> <Gold.ASP.ASP>
33.8320

> <Gold.ASP.Map>
-169.1600

> <Gold.ASP.DEClash>
1.5322

> <Gold.ASP.DEInternal>
2.1131

> <Gold.ASP.Internal.Correction>
0.1091

> <Gold.Protein.RotatedTorsions>
[ 8924 2752 2751 2750 ] final  124.34 input   60.00 | X-H torsion
[ 6908  969  968  965 ] final   37.49 input   59.99 | X-H torsion
[ 6912  975  974  971 ] final   44.99 input   60.00 | X-H torsion
[ 6899  962  961  958 ] final -150.60 input   60.00 | X-H torsion
[ 9165 2997 2996 2994 ] final   19.47 input   60.00 | X-H torsion
[ 7410 1497 1496 1493 ] final   -5.73 input   60.00 | X-H torsion
[ 7137 1220 1219 1216 ] final -117.89 input   60.00 | X-H torsion
[ 6928  995  994  992 ] final  -44.67 input   60.00 | X-H torsion

> <Gold.Protein.ActiveResidues>
 GLU87   ILE88   VAL90   ASN91   ALA92   ASP94   ASN95   ARG98   ILE118  ASN120 
 LYS123  GLY124  ILE125  ILE141  PHE142  THR147  SER148  SER149  ASN150  TYR151 
 GLY160  GLY161  ARG162  ASN163  GLY164  TYR165  GLY166  ALA167  LYS168  LEU169 
 THR181  THR215  ILE217  ILE317  GLN376  LYS378  ILE33   TYR34   MG903  

> <Gold.Protein.RotatedAtoms>
   41.0639    4.7207   42.9224 H   0  0  0  0  0  0  0  0  0  0  0  0  # atno 6899 bound_to 962 
   40.9992   -2.4266   39.0844 H   0  0  0  0  0  0  0  0  0  0  0  0  # atno 6908 bound_to 969 
   38.7573   -5.2773   40.0472 H   0  0  0  0  0  0  0  0  0  0  0  0  # atno 6912 bound_to 975 
   46.8666    1.2653   39.0936 H   0  0  0  0  0  0  0  0  0  0  0  0  # atno 6928 bound_to 995 
   28.1336   -0.1525   44.7111 H   0  0  0  0  0  0  0  0  0  0  0  0  # atno 7137 bound_to 1220
   26.7809   -0.2823   41.9858 H   0  0  0  0  0  0  0  0  0  0  0  0  # atno 7410 bound_to 1497
   43.3818    0.6838   30.3604 H   0  0  0  0  0  0  0  0  0  0  0  0  # atno 8924 bound_to 2752
   43.5831   -0.8822   30.8650 H   0  0  0  0  0  0  0  0  0  0  0  0  # atno 8925 bound_to 2752
   44.0495   -0.4370   29.3380 H   0  0  0  0  0  0  0  0  0  0  0  0  # atno 8926 bound_to 2752
   34.5868   -4.3720   43.7958 H   0  0  0  0  0  0  0  0  0  0  0  0  # atno 9165 bound_to 2997
   42.3616   -3.2412   39.4428 LP  0  0  0  0  0  0  0  0  0  0  0  0  # atno 11896 bound_to 969 
   42.2981   -2.2957   38.1129 LP  0  0  0  0  0  0  0  0  0  0  0  0  # atno 11897 bound_to 969 
   38.0957   -3.8543   40.4780 LP  0  0  0  0  0  0  0  0  0  0  0  0  # atno 11898 bound_to 975 
   37.3229   -5.2528   40.8153 LP  0  0  0  0  0  0  0  0  0  0  0  0  # atno 11899 bound_to 975 
   40.4870    3.4495   42.0861 LP  0  0  0  0  0  0  0  0  0  0  0  0  # atno 11904 bound_to 962 
   41.8908    4.1546   41.6403 LP  0  0  0  0  0  0  0  0  0  0  0  0  # atno 11905 bound_to 962 
   33.7930   -3.7257   45.0608 LP  0  0  0  0  0  0  0  0  0  0  0  0  # atno 11912 bound_to 2997
   34.4043   -5.2365   45.1624 LP  0  0  0  0  0  0  0  0  0  0  0  0  # atno 11913 bound_to 2997
   28.3490   -0.0781   41.6017 LP  0  0  0  0  0  0  0  0  0  0  0  0  # atno 11922 bound_to 1497
   27.5197   -1.3538   41.0091 LP  0  0  0  0  0  0  0  0  0  0  0  0  # atno 11923 bound_to 1497
   28.1504    0.1107   43.1054 LP  0  0  0  0  0  0  0  0  0  0  0  0  # atno 11930 bound_to 1220
   26.7304   -0.0682   43.8915 LP  0  0  0  0  0  0  0  0  0  0  0  0  # atno 11931 bound_to 1220

$$$$
****|SGG-4|sdf|1|dock76
  -GOLD-   9 72311503D 1   1.00000     0.00000

 46 48  0  0  0  0  0  0  0  0  1 V2000
   34.6742   -3.5666   40.2522 S   0  0  0  0  0  0  0  0  0  0  0  0
   33.0453   -3.2419   39.8134 C   0  0  0  0  0  0  0  0  0  0  0  0
   32.8131   -3.1556   38.5217 N   0  0  0  0  0  0  0  0  0  0  0  0
   33.9879   -3.3566   37.8253 C   0  0  0  0  0  0  0  0  0  0  0  0
   35.1119   -3.5979   38.5923 C   0  0  0  0  0  0  0  0  0  0  0  0
   36.5287   -3.8207   38.1716 C   0  0  0  0  0  0  0  0  0  0  0  0
   36.8377   -3.1308   36.5137 S   0  0  0  0  0  0  0  0  0  0  0  0
   37.8771   -1.7864   36.9635 C   0  0  0  0  0  0  0  0  0  0  0  0
   39.2160   -1.8226   36.6047 N   0  0  0  0  0  0  0  0  0  0  0  0
   40.0582   -0.7765   36.9609 C   0  0  0  0  0  0  0  0  0  0  0  0
   41.4056   -0.7991   36.5939 O   0  0  0  0  0  0  0  0  0  0  0  0
   39.5708    0.2488   37.6664 N   0  0  0  0  0  0  0  0  0  0  0  0
   38.2706    0.2067   37.9818 C   0  0  0  0  0  0  0  0  0  0  0  0
   37.6548    1.5411   38.9733 S   0  0  0  0  0  0  0  0  0  0  0  0
   36.5420    0.5428   39.9959 C   0  0  0  0  0  0  0  0  0  0  0  0
   35.1246    0.5570   39.4823 C   0  0  0  0  0  0  0  0  0  0  0  0
   34.1063   -0.1204   40.1633 C   0  0  0  0  0  0  0  0  0  0  0  0
   32.7881   -0.0780   39.6982 C   0  0  0  0  0  0  0  0  0  0  0  0
   32.4601    0.6283   38.5324 C   0  0  0  0  0  0  0  0  0  0  0  0
   33.4853    1.2958   37.8471 C   0  0  0  0  0  0  0  0  0  0  0  0
   34.8016    1.2586   38.3137 C   0  0  0  0  0  0  0  0  0  0  0  0
   35.5754    1.7856   37.7588 H   0  0  0  0  0  0  0  0  0  0  0  0
   33.2663    1.8576   36.9414 H   0  0  0  0  0  0  0  0  0  0  0  0
   31.0345    0.7228   38.0172 C   0  0  0  0  0  0  0  0  0  0  0  0
   30.4892   -0.6702   37.6950 C   0  0  0  0  0  0  0  0  0  0  0  0
   31.0556   -1.1504   36.8894 H   0  0  0  0  0  0  0  0  0  0  0  0
   30.5401   -1.3239   38.5731 H   0  0  0  0  0  0  0  0  0  0  0  0
   29.4412   -0.6127   37.3823 H   0  0  0  0  0  0  0  0  0  0  0  0
   30.8901    1.6540   36.8104 C   0  0  0  0  0  0  0  0  0  0  0  0
   31.3367    1.2293   35.9050 H   0  0  0  0  0  0  0  0  0  0  0  0
   31.3677    2.6211   37.0014 H   0  0  0  0  0  0  0  0  0  0  0  0
   29.8317    1.8390   36.5962 H   0  0  0  0  0  0  0  0  0  0  0  0
   30.4089    1.1480   38.8137 H   0  0  0  0  0  0  0  0  0  0  0  0
   32.0204   -0.5990   40.2649 H   0  0  0  0  0  0  0  0  0  0  0  0
   34.3290   -0.6814   41.0684 H   0  0  0  0  0  0  0  0  0  0  0  0
   36.5439    0.9127   41.0286 H   0  0  0  0  0  0  0  0  0  0  0  0
   36.9165   -0.4872   40.0322 H   0  0  0  0  0  0  0  0  0  0  0  0
   37.3993   -0.7585   37.6649 N   0  0  0  0  0  0  0  0  0  0  0  0
   39.5700   -2.6129   36.0841 H   0  0  0  0  0  0  0  0  0  0  0  0
   37.1936   -3.3299   38.8922 H   0  0  0  0  0  0  0  0  0  0  0  0
   36.7708   -4.8890   38.1642 H   0  0  0  0  0  0  0  0  0  0  0  0
   33.9666   -3.3153   36.7425 H   0  0  0  0  0  0  0  0  0  0  0  0
   32.0098   -3.0612   40.8663 C   0  0  0  0  0  0  0  0  0  0  0  0
   31.9818   -3.9338   41.5271 H   0  0  0  0  0  0  0  0  0  0  0  0
   31.0213   -2.9483   40.4100 H   0  0  0  0  0  0  0  0  0  0  0  0
   32.2145   -2.1801   41.4827 H   0  0  0  0  0  0  0  0  0  0  0  0
  1  2  1  0  0  0  0
  1  5  1  0  0  0  0
  2  3  2  0  0  0  0
  2 43  1  0  0  0  0
  3  4  1  0  0  0  0
  4  5  2  0  0  0  0
  4 42  1  0  0  0  0
  5  6  1  0  0  0  0
  6  7  1  0  0  0  0
  6 40  1  0  0  0  0
  6 41  1  0  0  0  0
  7  8  1  0  0  0  0
  8  9  1  0  0  0  0
  8 38  2  0  0  0  0
  9 10  1  0  0  0  0
  9 39  1  0  0  0  0
 10 11  2  0  0  0  0
 10 12  1  0  0  0  0
 12 13  2  0  0  0  0
 13 14  1  0  0  0  0
 13 38  1  0  0  0  0
 14 15  1  0  0  0  0
 15 16  1  0  0  0  0
 15 36  1  0  0  0  0
 15 37  1  0  0  0  0
 16 17  1  0  0  0  0
 16 21  2  0  0  0  0
 17 18  2  0  0  0  0
 17 35  1  0  0  0  0
 18 19  1  0  0  0  0
 18 34  1  0  0  0  0
 19 20  2  0  0  0  0
 19 24  1  0  0  0  0
 20 21  1  0  0  0  0
 20 23  1  0  0  0  0
 21 22  1  0  0  0  0
 24 25  1  0  0  0  0
 24 29  1  0  0  0  0
 24 33  1  0  0  0  0
 25 26  1  0  0  0  0
 25 27  1  0  0  0  0
 25 28  1  0  0  0  0
 29 30  1  0  0  0  0
 29 31  1  0  0  0  0
 29 32  1  0  0  0  0
 43 44  1  0  0  0  0
 43 45  1  0  0  0  0
 43 46  1  0  0  0  0
M  END
> <Gold.Goldscore.Fitness>
67.7756

> <Gold.Goldscore.External.HBond>
1.4847

> <Gold.Protein.ActiveResidues>
 GLU87   ILE88   VAL90   ASN91   ALA92   ASP94   ASN95   ARG98   ILE118  ASN120 
 LYS123  GLY124  ILE125  ILE141  PHE142  THR147  SER148  SER149  ASN150  TYR151 
 GLY160  GLY161  ARG162  ASN163  GLY164  TYR165  GLY166  ALA167  LYS168  LEU169 
 THR181  THR215  ILE217  ILE317  GLN376  LYS378  ILE33   TYR34   MG903  

> <Gold.Goldscore.Internal.HBond>
0.0

> <Gold.Goldscore.Internal.Torsion.Weighted>
-4.6232

> <Gold.Protein.RotatedTorsions>
[ 8833 2752 2751 2750 ] final  -92.65 input   60.00 | X-H torsion
[ 6906  969  968  965 ] final -179.89 input   59.99 | X-H torsion
[ 6910  975  974  971 ] final  -12.12 input   60.00 | X-H torsion
[ 6897  962  961  958 ] final   71.11 input   60.00 | X-H torsion
[ 9084 2997 2996 2994 ] final  -38.60 input   60.00 | X-H torsion
[ 7406 1497 1496 1493 ] final  170.76 input   60.00 | X-H torsion
[ 7140 1220 1219 1216 ] final  115.27 input   60.00 | X-H torsion
[ 6926  995  994  992 ] final   25.13 input   60.0

> <Gold.Goldscore.Constraint.Score>
0.0

> <Gold.Id.Protein>
1ZXM|1ZXM_protein|mol2

> <Gold.Protein.RotatedAtoms>
   40.6750    3.3830   41.8637 H   0  0  0  0  0  0  0  0  0  0  0  0  # atno 6897 bound_to 962 
   42.5663   -2.5035   38.2571 H   0  0  0  0  0  0  0  0  0  0  0  0  # atno 6906 bound_to 969 
   38.8111   -4.3840   40.0676 H   0  0  0  0  0  0  0  0  0  0  0  0  # atno 6910 bound_to 975 
   45.8911    1.1244   38.6740 H   0  0  0  0  0  0  0  0  0  0  0  0  # atno 6926 bound_to 995 
   28.0475    0.1168   43.0607 H   0  0  0  0  0  0  0  0  0  0  0  0  # atno 7140 bound_to 1220
   28.2838   -0.9017   41.0

> <Gold.Version>
5.3.0

> <Gold.Goldscore.Internal.Correction>
-0.0166

> <Gold.Goldscore.Internal.Vdw>
-1.3472

> <Gold.Goldscore.Internal.Vdw.Weighted>
-1.3472

> <Gold.Goldscore.External.HBond.Weighted>
1.4847

> <Gold.Goldscore.External.Vdw.Weighted>
72.2447

> <Gold.Goldscore.Internal.HBond.Weighted>
0.0

> <Gold.Goldscore.Hbonds>
donor molecule, donor type, donor heavy atom, donor atom, acceptor molecule, acceptor atom, score
      L1  H     1    27       P1   757  0.74

> <Gold.Goldscore.External.Vdw>
52.5416

> <Gold.Goldscore.Internal.Torsion>
-4.6232

> <Gold.Goldscore.Internal.Correction.Weighted>
-0.0166

> <Gold.Version>
5.3.0

> <Gold.Id.Protein>
1ZXM|1ZXM_protein|mol2

> <Gold.ASP.Fitness>
30.0786

> <Gold.ASP.ASP>
33.1880

> <Gold.ASP.Map>
-165.9400

> <Gold.ASP.DEClash>
1.8834

> <Gold.ASP.DEInternal>
1.2260

> <Gold.ASP.Internal.Correction>
0.1091

> <Gold.Protein.RotatedTorsions>
[ 8924 2752 2751 2750 ] final  -51.32 input   60.00 | X-H torsion
[ 6908  969  968  965 ] final   22.97 input   59.99 | X-H torsion
[ 6912  975  974  971 ] final  110.20 input   60.00 | X-H torsion
[ 6899  962  961  958 ] final  118.36 input   60.00 | X-H torsion
[ 9165 2997 2996 2994 ] final  -56.17 input   60.00 | X-H torsion
[ 7410 1497 1496 1493 ] final  -26.40 input   60.00 | X-H torsion
[ 7137 1220 1219 1216 ] final  146.14 input   60.00 | X-H torsion
[ 6928  995  994  992 ] final -155.57 input   60.00 | X-H torsion

> <Gold.Protein.ActiveResidues>
 GLU87   ILE88   VAL90   ASN91   ALA92   ASP94   ASN95   ARG98   ILE118  ASN120 
 LYS123  GLY124  ILE125  ILE141  PHE142  THR147  SER148  SER149  ASN150  TYR151 
 GLY160  GLY161  ARG162  ASN163  GLY164  TYR165  GLY166  ALA167  LYS168  LEU169 
 THR181  THR215  ILE217  ILE317  GLN376  LYS378  ILE33   TYR34   MG903  

> <Gold.Protein.RotatedAtoms>
   40.3447    3.6935   42.4616 H   0  0  0  0  0  0  0  0  0  0  0  0  # atno 6899 bound_to 962 
   41.0366   -2.5697   39.2691 H   0  0  0  0  0  0  0  0  0  0  0  0  # atno 6908 bound_to 969 
   37.9508   -5.7257   40.4550 H   0  0  0  0  0  0  0  0  0  0  0  0  # atno 6912 bound_to 975 
   46.2223    1.6128   40.4510 H   0  0  0  0  0  0  0  0  0  0  0  0  # atno 6928 bound_to 995 
   28.4341    0.0788   43.3727 H   0  0  0  0  0  0  0  0  0  0  0  0  # atno 7137 bound_to 1220
   26.9981   -0.0426   42.0765 H   0  0  0  0  0  0  0  0  0  0  0  0  # atno 7410 bound_to 1497
   43.9808   -1.0854   29.9490 H   0  0  0  0  0  0  0  0  0  0  0  0  # atno 8924 bound_to 2752
   43.7303    0.5056   29.5572 H   0  0  0  0  0  0  0  0  0  0  0  0  # atno 8925 bound_to 2752
   43.3034   -0.0557   31.0572 H   0  0  0  0  0  0  0  0  0  0  0  0  # atno 8926 bound_to 2752
   34.0041   -3.5870   44.3980 H   0  0  0  0  0  0  0  0  0  0  0  0  # atno 9165 bound_to 2997
   42.5353   -3.2035   39.2841 LP  0  0  0  0  0  0  0  0  0  0  0  0  # atno 11896 bound_to 969 
   42.0866   -2.1893   38.0855 LP  0  0  0  0  0  0  0  0  0  0  0  0  # atno 11897 bound_to 969 
   38.8287   -4.4156   40.0538 LP  0  0  0  0  0  0  0  0  0  0  0  0  # atno 11898 bound_to 975 
   37.4021   -4.2400   40.8288 LP  0  0  0  0  0  0  0  0  0  0  0  0  # atno 11899 bound_to 975 
   41.6370    3.7921   41.4777 LP  0  0  0  0  0  0  0  0  0  0  0  0  # atno 11904 bound_to 962 
   41.4652    4.8465   42.7128 LP  0  0  0  0  0  0  0  0  0  0  0  0  # atno 11905 bound_to 962 
   34.0431   -4.7499   45.5357 LP  0  0  0  0  0  0  0  0  0  0  0  0  # atno 11912 bound_to 2997
   34.7410   -5.0029   44.0812 LP  0  0  0  0  0  0  0  0  0  0  0  0  # atno 11913 bound_to 2997
   28.4490   -0.3283   41.3973 LP  0  0  0  0  0  0  0  0  0  0  0  0  # atno 11922 bound_to 1497
   27.2010   -1.3449   41.1221 LP  0  0  0  0  0  0  0  0  0  0  0  0  # atno 11923 bound_to 1497
   26.8151   -0.0030   43.5140 LP  0  0  0  0  0  0  0  0  0  0  0  0  # atno 11930 bound_to 1220
   27.7630   -0.1874   44.8309 LP  0  0  0  0  0  0  0  0  0  0  0  0  # atno 11931 bound_to 1220

$$$$
****|SGG-4|sdf|1|dock51
  -GOLD-   9 72311483D 1   1.00000     0.00000

 46 48  0  0  0  0  0  0  0  0  1 V2000
   36.3432    0.1796   38.6960 S   0  0  0  0  0  0  0  0  0  0  0  0
   36.8968    1.7752   39.0106 C   0  0  0  0  0  0  0  0  0  0  0  0
   38.1908    1.9639   38.8699 N   0  0  0  0  0  0  0  0  0  0  0  0
   38.7929    0.7810   38.4902 C   0  0  0  0  0  0  0  0  0  0  0  0
   37.9516   -0.3052   38.3411 C   0  0  0  0  0  0  0  0  0  0  0  0
   38.2693   -1.7201   37.9791 C   0  0  0  0  0  0  0  0  0  0  0  0
   36.9760   -2.4308   36.9104 S   0  0  0  0  0  0  0  0  0  0  0  0
   36.1891   -3.4744   38.0860 C   0  0  0  0  0  0  0  0  0  0  0  0
   36.1625   -4.8421   37.8591 N   0  0  0  0  0  0  0  0  0  0  0  0
   35.5350   -5.6840   38.7689 C   0  0  0  0  0  0  0  0  0  0  0  0
   35.5132   -7.0640   38.5543 O   0  0  0  0  0  0  0  0  0  0  0  0
   34.9434   -5.1621   39.8478 N   0  0  0  0  0  0  0  0  0  0  0  0
   35.0047   -3.8328   39.9920 C   0  0  0  0  0  0  0  0  0  0  0  0
   34.1592   -3.1504   41.3929 S   0  0  0  0  0  0  0  0  0  0  0  0
   32.4795   -3.4021   40.7638 C   0  0  0  0  0  0  0  0  0  0  0  0
   31.9917   -2.2316   39.9484 C   0  0  0  0  0  0  0  0  0  0  0  0
   32.8383   -1.1554   39.6575 C   0  0  0  0  0  0  0  0  0  0  0  0
   32.3888   -0.0870   38.8751 C   0  0  0  0  0  0  0  0  0  0  0  0
   31.0776   -0.0613   38.3795 C   0  0  0  0  0  0  0  0  0  0  0  0
   30.2294   -1.1358   38.6831 C   0  0  0  0  0  0  0  0  0  0  0  0
   30.6790   -2.2063   39.4601 C   0  0  0  0  0  0  0  0  0  0  0  0
   29.9963   -3.0248   39.6798 H   0  0  0  0  0  0  0  0  0  0  0  0
   29.2070   -1.1514   38.3114 H   0  0  0  0  0  0  0  0  0  0  0  0
   30.5665    1.0664   37.4998 C   0  0  0  0  0  0  0  0  0  0  0  0
   29.9892    0.5085   36.1972 C   0  0  0  0  0  0  0  0  0  0  0  0
   30.7546    0.0010   35.5996 H   0  0  0  0  0  0  0  0  0  0  0  0
   29.1915   -0.2151   36.4000 H   0  0  0  0  0  0  0  0  0  0  0  0
   29.5633    1.3122   35.5872 H   0  0  0  0  0  0  0  0  0  0  0  0
   31.6264    2.1327   37.2103 C   0  0  0  0  0  0  0  0  0  0  0  0
   32.4041    1.7685   36.5305 H   0  0  0  0  0  0  0  0  0  0  0  0
   32.1128    2.4639   38.1343 H   0  0  0  0  0  0  0  0  0  0  0  0
   31.1668    3.0093   36.7404 H   0  0  0  0  0  0  0  0  0  0  0  0
   29.7519    1.5754   38.0327 H   0  0  0  0  0  0  0  0  0  0  0  0
   33.0813    0.7211   38.6524 H   0  0  0  0  0  0  0  0  0  0  0  0
   33.8600   -1.1431   40.0310 H   0  0  0  0  0  0  0  0  0  0  0  0
   31.7840   -3.5626   41.5968 H   0  0  0  0  0  0  0  0  0  0  0  0
   32.4573   -4.3156   40.1577 H   0  0  0  0  0  0  0  0  0  0  0  0
   35.5986   -2.9631   39.1661 N   0  0  0  0  0  0  0  0  0  0  0  0
   36.6023   -5.2172   37.0304 H   0  0  0  0  0  0  0  0  0  0  0  0
   39.2264   -1.7427   37.4447 H   0  0  0  0  0  0  0  0  0  0  0  0
   38.3706   -2.3397   38.8767 H   0  0  0  0  0  0  0  0  0  0  0  0
   39.8652    0.7678   38.3336 H   0  0  0  0  0  0  0  0  0  0  0  0
   35.9353    2.8307   39.4290 C   0  0  0  0  0  0  0  0  0  0  0  0
   35.1289    2.9245   38.6944 H   0  0  0  0  0  0  0  0  0  0  0  0
   36.4427    3.7977   39.5026 H   0  0  0  0  0  0  0  0  0  0  0  0
   35.4813    2.5979   40.3975 H   0  0  0  0  0  0  0  0  0  0  0  0
  1  2  1  0  0  0  0
  1  5  1  0  0  0  0
  2  3  2  0  0  0  0
  2 43  1  0  0  0  0
  3  4  1  0  0  0  0
  4  5  2  0  0  0  0
  4 42  1  0  0  0  0
  5  6  1  0  0  0  0
  6  7  1  0  0  0  0
  6 40  1  0  0  0  0
  6 41  1  0  0  0  0
  7  8  1  0  0  0  0
  8  9  1  0  0  0  0
  8 38  2  0  0  0  0
  9 10  1  0  0  0  0
  9 39  1  0  0  0  0
 10 11  2  0  0  0  0
 10 12  1  0  0  0  0
 12 13  2  0  0  0  0
 13 14  1  0  0  0  0
 13 38  1  0  0  0  0
 14 15  1  0  0  0  0
 15 16  1  0  0  0  0
 15 36  1  0  0  0  0
 15 37  1  0  0  0  0
 16 17  1  0  0  0  0
 16 21  2  0  0  0  0
 17 18  2  0  0  0  0
 17 35  1  0  0  0  0
 18 19  1  0  0  0  0
 18 34  1  0  0  0  0
 19 20  2  0  0  0  0
 19 24  1  0  0  0  0
 20 21  1  0  0  0  0
 20 23  1  0  0  0  0
 21 22  1  0  0  0  0
 24 25  1  0  0  0  0
 24 29  1  0  0  0  0
 24 33  1  0  0  0  0
 25 26  1  0  0  0  0
 25 27  1  0  0  0  0
 25 28  1  0  0  0  0
 29 30  1  0  0  0  0
 29 31  1  0  0  0  0
 29 32  1  0  0  0  0
 43 44  1  0  0  0  0
 43 45  1  0  0  0  0
 43 46  1  0  0  0  0
M  END
> <Gold.Goldscore.Fitness>
67.7756

> <Gold.Goldscore.External.HBond>
1.4847

> <Gold.Protein.ActiveResidues>
 GLU87   ILE88   VAL90   ASN91   ALA92   ASP94   ASN95   ARG98   ILE118  ASN120 
 LYS123  GLY124  ILE125  ILE141  PHE142  THR147  SER148  SER149  ASN150  TYR151 
 GLY160  GLY161  ARG162  ASN163  GLY164  TYR165  GLY166  ALA167  LYS168  LEU169 
 THR181  THR215  ILE217  ILE317  GLN376  LYS378  ILE33   TYR34   MG903  

> <Gold.Goldscore.Internal.HBond>
0.0

> <Gold.Goldscore.Internal.Torsion.Weighted>
-4.6232

> <Gold.Protein.RotatedTorsions>
[ 8833 2752 2751 2750 ] final  -92.65 input   60.00 | X-H torsion
[ 6906  969  968  965 ] final -179.89 input   59.99 | X-H torsion
[ 6910  975  974  971 ] final  -12.12 input   60.00 | X-H torsion
[ 6897  962  961  958 ] final   71.11 input   60.00 | X-H torsion
[ 9084 2997 2996 2994 ] final  -38.60 input   60.00 | X-H torsion
[ 7406 1497 1496 1493 ] final  170.76 input   60.00 | X-H torsion
[ 7140 1220 1219 1216 ] final  115.27 input   60.00 | X-H torsion
[ 6926  995  994  992 ] final   25.13 input   60.0

> <Gold.Goldscore.Constraint.Score>
0.0

> <Gold.Id.Protein>
1ZXM|1ZXM_protein|mol2

> <Gold.Protein.RotatedAtoms>
   40.6750    3.3830   41.8637 H   0  0  0  0  0  0  0  0  0  0  0  0  # atno 6897 bound_to 962 
   42.5663   -2.5035   38.2571 H   0  0  0  0  0  0  0  0  0  0  0  0  # atno 6906 bound_to 969 
   38.8111   -4.3840   40.0676 H   0  0  0  0  0  0  0  0  0  0  0  0  # atno 6910 bound_to 975 
   45.8911    1.1244   38.6740 H   0  0  0  0  0  0  0  0  0  0  0  0  # atno 6926 bound_to 995 
   28.0475    0.1168   43.0607 H   0  0  0  0  0  0  0  0  0  0  0  0  # atno 7140 bound_to 1220
   28.2838   -0.9017   41.0

> <Gold.Version>
5.3.0

> <Gold.Goldscore.Internal.Correction>
-0.0166

> <Gold.Goldscore.Internal.Vdw>
-1.3472

> <Gold.Goldscore.Internal.Vdw.Weighted>
-1.3472

> <Gold.Goldscore.External.HBond.Weighted>
1.4847

> <Gold.Goldscore.External.Vdw.Weighted>
72.2447

> <Gold.Goldscore.Internal.HBond.Weighted>
0.0

> <Gold.Goldscore.Hbonds>
donor molecule, donor type, donor heavy atom, donor atom, acceptor molecule, acceptor atom, score
      L1  H     1    27       P1   757  0.74

> <Gold.Goldscore.External.Vdw>
52.5416

> <Gold.Goldscore.Internal.Torsion>
-4.6232

> <Gold.Goldscore.Internal.Correction.Weighted>
-0.0166

> <Gold.Version>
5.3.0

> <Gold.Id.Protein>
1ZXM|1ZXM_protein|mol2

> <Gold.ASP.Fitness>
30.0574

> <Gold.ASP.ASP>
31.5120

> <Gold.ASP.Map>
-157.5600

> <Gold.ASP.DEClash>
0.5245

> <Gold.ASP.DEInternal>
0.9301

> <Gold.ASP.Internal.Correction>
0.1091

> <Gold.Protein.RotatedTorsions>
[ 8924 2752 2751 2750 ] final   24.42 input   60.00 | X-H torsion
[ 6908  969  968  965 ] final -176.38 input   59.99 | X-H torsion
[ 6912  975  974  971 ] final  130.66 input   60.00 | X-H torsion
[ 6899  962  961  958 ] final    1.71 input   60.00 | X-H torsion
[ 9165 2997 2996 2994 ] final   45.41 input   60.00 | X-H torsion
[ 7410 1497 1496 1493 ] final  142.60 input   60.00 | X-H torsion
[ 7137 1220 1219 1216 ] final   16.61 input   60.00 | X-H torsion
[ 6928  995  994  992 ] final  113.92 input   60.00 | X-H torsion

> <Gold.Protein.ActiveResidues>
 GLU87   ILE88   VAL90   ASN91   ALA92   ASP94   ASN95   ARG98   ILE118  ASN120 
 LYS123  GLY124  ILE125  ILE141  PHE142  THR147  SER148  SER149  ASN150  TYR151 
 GLY160  GLY161  ARG162  ASN163  GLY164  TYR165  GLY166  ALA167  LYS168  LEU169 
 THR181  THR215  ILE217  ILE317  GLN376  LYS378  ILE33   TYR34   MG903  

> <Gold.Protein.RotatedAtoms>
   41.5961    3.7548   41.4772 H   0  0  0  0  0  0  0  0  0  0  0  0  # atno 6899 bound_to 962 
   42.5997   -2.5385   38.2878 H   0  0  0  0  0  0  0  0  0  0  0  0  # atno 6908 bound_to 969 
   37.6718   -5.6318   40.6098 H   0  0  0  0  0  0  0  0  0  0  0  0  # atno 6912 bound_to 975 
   45.1388    1.3834   39.7148 H   0  0  0  0  0  0  0  0  0  0  0  0  # atno 6928 bound_to 995 
   26.7687   -0.0266   43.6612 H   0  0  0  0  0  0  0  0  0  0  0  0  # atno 7137 bound_to 1220
   27.9507   -1.1986   40.9675 H   0  0  0  0  0  0  0  0  0  0  0  0  # atno 7410 bound_to 1497
   43.9866   -0.1129   29.2896 H   0  0  0  0  0  0  0  0  0  0  0  0  # atno 8924 bound_to 2752
   43.3069    0.5410   30.6526 H   0  0  0  0  0  0  0  0  0  0  0  0  # atno 8925 bound_to 2752
   43.7209   -1.0636   30.6211 H   0  0  0  0  0  0  0  0  0  0  0  0  # atno 8926 bound_to 2752
   34.7076   -4.7582   43.9096 H   0  0  0  0  0  0  0  0  0  0  0  0  # atno 9165 bound_to 2997
   41.0673   -2.2096   38.7255 LP  0  0  0  0  0  0  0  0  0  0  0  0  # atno 11896 bound_to 969 
   41.9806   -3.2146   39.6324 LP  0  0  0  0  0  0  0  0  0  0  0  0  # atno 11897 bound_to 969 
   38.8906   -4.7408   40.0027 LP  0  0  0  0  0  0  0  0  0  0  0  0  # atno 11898 bound_to 975 
   37.6212   -4.0093   40.7240 LP  0  0  0  0  0  0  0  0  0  0  0  0  # atno 11899 bound_to 975 
   41.5084    4.8486   42.6788 LP  0  0  0  0  0  0  0  0  0  0  0  0  # atno 11904 bound_to 962 
   40.3334    3.7283   42.5032 LP  0  0  0  0  0  0  0  0  0  0  0  0  # atno 11905 bound_to 962 
   33.8863   -3.5799   44.6746 LP  0  0  0  0  0  0  0  0  0  0  0  0  # atno 11912 bound_to 2997
   34.1893   -4.9934   45.4341 LP  0  0  0  0  0  0  0  0  0  0  0  0  # atno 11913 bound_to 2997
   26.6414   -0.6658   41.7737 LP  0  0  0  0  0  0  0  0  0  0  0  0  # atno 11922 bound_to 1497
   28.0492    0.1568   41.8627 LP  0  0  0  0  0  0  0  0  0  0  0  0  # atno 11923 bound_to 1497
   27.9169   -0.1776   44.8043 LP  0  0  0  0  0  0  0  0  0  0  0  0  # atno 11930 bound_to 1220
   28.3386    0.0934   43.2501 LP  0  0  0  0  0  0  0  0  0  0  0  0  # atno 11931 bound_to 1220

$$$$
****|SGG-4|sdf|1|dock32
  -GOLD-   9 72311463D 1   1.00000     0.00000

 46 48  0  0  0  0  0  0  0  0  1 V2000
   35.5900   -6.5243   40.2546 S   0  0  0  0  0  0  0  0  0  0  0  0
   35.5782   -6.2740   41.9542 C   0  0  0  0  0  0  0  0  0  0  0  0
   35.1352   -5.1009   42.3510 N   0  0  0  0  0  0  0  0  0  0  0  0
   34.7802   -4.3440   41.2524 C   0  0  0  0  0  0  0  0  0  0  0  0
   34.9531   -4.9471   40.0211 C   0  0  0  0  0  0  0  0  0  0  0  0
   34.7059   -4.4098   38.6484 C   0  0  0  0  0  0  0  0  0  0  0  0
   36.2030   -4.5304   37.6166 S   0  0  0  0  0  0  0  0  0  0  0  0
   36.8536   -2.9195   37.8848 C   0  0  0  0  0  0  0  0  0  0  0  0
   37.4967   -2.2720   36.8409 N   0  0  0  0  0  0  0  0  0  0  0  0
   38.0294   -1.0035   37.0346 C   0  0  0  0  0  0  0  0  0  0  0  0
   38.6689   -0.3391   35.9856 O   0  0  0  0  0  0  0  0  0  0  0  0
   37.9335   -0.4266   38.2365 N   0  0  0  0  0  0  0  0  0  0  0  0
   37.3061   -1.1187   39.1951 C   0  0  0  0  0  0  0  0  0  0  0  0
   37.2449   -0.3681   40.8000 S   0  0  0  0  0  0  0  0  0  0  0  0
   36.3638    1.1313   40.2938 C   0  0  0  0  0  0  0  0  0  0  0  0
   35.0444    0.8247   39.6321 C   0  0  0  0  0  0  0  0  0  0  0  0
   34.7685    1.2750   38.3356 C   0  0  0  0  0  0  0  0  0  0  0  0
   33.5547    0.9613   37.7160 C   0  0  0  0  0  0  0  0  0  0  0  0
   32.5817    0.2047   38.3841 C   0  0  0  0  0  0  0  0  0  0  0  0
   32.8575   -0.2344   39.6869 C   0  0  0  0  0  0  0  0  0  0  0  0
   34.0720    0.0738   40.3049 C   0  0  0  0  0  0  0  0  0  0  0  0
   34.2559   -0.2803   41.3173 H   0  0  0  0  0  0  0  0  0  0  0  0
   32.1273   -0.8276   40.2335 H   0  0  0  0  0  0  0  0  0  0  0  0
   31.2667   -0.1821   37.7298 C   0  0  0  0  0  0  0  0  0  0  0  0
   30.5106    1.0664   37.2705 C   0  0  0  0  0  0  0  0  0  0  0  0
   30.2346    1.7065   38.1158 H   0  0  0  0  0  0  0  0  0  0  0  0
   31.1216    1.6650   36.5854 H   0  0  0  0  0  0  0  0  0  0  0  0
   29.5915    0.7900   36.7429 H   0  0  0  0  0  0  0  0  0  0  0  0
   30.3814   -1.0535   38.6248 C   0  0  0  0  0  0  0  0  0  0  0  0
   29.9583   -0.4891   39.4627 H   0  0  0  0  0  0  0  0  0  0  0  0
   30.9477   -1.8961   39.0362 H   0  0  0  0  0  0  0  0  0  0  0  0
   29.5428   -1.4617   38.0499 H   0  0  0  0  0  0  0  0  0  0  0  0
   31.4906   -0.7816   36.8370 H   0  0  0  0  0  0  0  0  0  0  0  0
   33.3843    1.3107   36.7007 H   0  0  0  0  0  0  0  0  0  0  0  0
   35.5009    1.8681   37.7921 H   0  0  0  0  0  0  0  0  0  0  0  0
   36.9784    1.7135   39.5963 H   0  0  0  0  0  0  0  0  0  0  0  0
   36.2028    1.7661   41.1733 H   0  0  0  0  0  0  0  0  0  0  0  0
   36.7604   -2.3354   39.0794 N   0  0  0  0  0  0  0  0  0  0  0  0
   37.5726   -2.7298   35.9434 H   0  0  0  0  0  0  0  0  0  0  0  0
   33.9020   -4.9901   38.1803 H   0  0  0  0  0  0  0  0  0  0  0  0
   34.3849   -3.3634   38.6903 H   0  0  0  0  0  0  0  0  0  0  0  0
   34.3951   -3.3433   41.4103 H   0  0  0  0  0  0  0  0  0  0  0  0
   36.0651   -7.3409   42.8699 C   0  0  0  0  0  0  0  0  0  0  0  0
   35.5193   -8.2734   42.6929 H   0  0  0  0  0  0  0  0  0  0  0  0
   35.9069   -7.0467   43.9122 H   0  0  0  0  0  0  0  0  0  0  0  0
   37.1306   -7.5422   42.7198 H   0  0  0  0  0  0  0  0  0  0  0  0
  1  2  1  0  0  0  0
  1  5  1  0  0  0  0
  2  3  2  0  0  0  0
  2 43  1  0  0  0  0
  3  4  1  0  0  0  0
  4  5  2  0  0  0  0
  4 42  1  0  0  0  0
  5  6  1  0  0  0  0
  6  7  1  0  0  0  0
  6 40  1  0  0  0  0
  6 41  1  0  0  0  0
  7  8  1  0  0  0  0
  8  9  1  0  0  0  0
  8 38  2  0  0  0  0
  9 10  1  0  0  0  0
  9 39  1  0  0  0  0
 10 11  2  0  0  0  0
 10 12  1  0  0  0  0
 12 13  2  0  0  0  0
 13 14  1  0  0  0  0
 13 38  1  0  0  0  0
 14 15  1  0  0  0  0
 15 16  1  0  0  0  0
 15 36  1  0  0  0  0
 15 37  1  0  0  0  0
 16 17  1  0  0  0  0
 16 21  2  0  0  0  0
 17 18  2  0  0  0  0
 17 35  1  0  0  0  0
 18 19  1  0  0  0  0
 18 34  1  0  0  0  0
 19 20  2  0  0  0  0
 19 24  1  0  0  0  0
 20 21  1  0  0  0  0
 20 23  1  0  0  0  0
 21 22  1  0  0  0  0
 24 25  1  0  0  0  0
 24 29  1  0  0  0  0
 24 33  1  0  0  0  0
 25 26  1  0  0  0  0
 25 27  1  0  0  0  0
 25 28  1  0  0  0  0
 29 30  1  0  0  0  0
 29 31  1  0  0  0  0
 29 32  1  0  0  0  0
 43 44  1  0  0  0  0
 43 45  1  0  0  0  0
 43 46  1  0  0  0  0
M  END
> <Gold.Goldscore.Fitness>
67.7756

> <Gold.Goldscore.External.HBond>
1.4847

> <Gold.Protein.ActiveResidues>
 GLU87   ILE88   VAL90   ASN91   ALA92   ASP94   ASN95   ARG98   ILE118  ASN120 
 LYS123  GLY124  ILE125  ILE141  PHE142  THR147  SER148  SER149  ASN150  TYR151 
 GLY160  GLY161  ARG162  ASN163  GLY164  TYR165  GLY166  ALA167  LYS168  LEU169 
 THR181  THR215  ILE217  ILE317  GLN376  LYS378  ILE33   TYR34   MG903  

> <Gold.Goldscore.Internal.HBond>
0.0

> <Gold.Goldscore.Internal.Torsion.Weighted>
-4.6232

> <Gold.Protein.RotatedTorsions>
[ 8833 2752 2751 2750 ] final  -92.65 input   60.00 | X-H torsion
[ 6906  969  968  965 ] final -179.89 input   59.99 | X-H torsion
[ 6910  975  974  971 ] final  -12.12 input   60.00 | X-H torsion
[ 6897  962  961  958 ] final   71.11 input   60.00 | X-H torsion
[ 9084 2997 2996 2994 ] final  -38.60 input   60.00 | X-H torsion
[ 7406 1497 1496 1493 ] final  170.76 input   60.00 | X-H torsion
[ 7140 1220 1219 1216 ] final  115.27 input   60.00 | X-H torsion
[ 6926  995  994  992 ] final   25.13 input   60.0

> <Gold.Goldscore.Constraint.Score>
0.0

> <Gold.Id.Protein>
1ZXM|1ZXM_protein|mol2

> <Gold.Protein.RotatedAtoms>
   40.6750    3.3830   41.8637 H   0  0  0  0  0  0  0  0  0  0  0  0  # atno 6897 bound_to 962 
   42.5663   -2.5035   38.2571 H   0  0  0  0  0  0  0  0  0  0  0  0  # atno 6906 bound_to 969 
   38.8111   -4.3840   40.0676 H   0  0  0  0  0  0  0  0  0  0  0  0  # atno 6910 bound_to 975 
   45.8911    1.1244   38.6740 H   0  0  0  0  0  0  0  0  0  0  0  0  # atno 6926 bound_to 995 
   28.0475    0.1168   43.0607 H   0  0  0  0  0  0  0  0  0  0  0  0  # atno 7140 bound_to 1220
   28.2838   -0.9017   41.0

> <Gold.Version>
5.3.0

> <Gold.Goldscore.Internal.Correction>
-0.0166

> <Gold.Goldscore.Internal.Vdw>
-1.3472

> <Gold.Goldscore.Internal.Vdw.Weighted>
-1.3472

> <Gold.Goldscore.External.HBond.Weighted>
1.4847

> <Gold.Goldscore.External.Vdw.Weighted>
72.2447

> <Gold.Goldscore.Internal.HBond.Weighted>
0.0

> <Gold.Goldscore.Hbonds>
donor molecule, donor type, donor heavy atom, donor atom, acceptor molecule, acceptor atom, score
      L1  H     1    27       P1   757  0.74

> <Gold.Goldscore.External.Vdw>
52.5416

> <Gold.Goldscore.Internal.Torsion>
-4.6232

> <Gold.Goldscore.Internal.Correction.Weighted>
-0.0166

> <Gold.Version>
5.3.0

> <Gold.Id.Protein>
1ZXM|1ZXM_protein|mol2

> <Gold.ASP.Fitness>
30.0021

> <Gold.ASP.ASP>
31.3140

> <Gold.ASP.Map>
-156.5700

> <Gold.ASP.DEClash>
0.8009

> <Gold.ASP.DEInternal>
0.5111

> <Gold.ASP.Internal.Correction>
0.1091

> <Gold.Protein.RotatedTorsions>
[ 8924 2752 2751 2750 ] final   67.28 input   60.00 | X-H torsion
[ 6908  969  968  965 ] final  -17.61 input   59.99 | X-H torsion
[ 6912  975  974  971 ] final -118.52 input   60.00 | X-H torsion
[ 6899  962  961  958 ] final  165.04 input   60.00 | X-H torsion
[ 9165 2997 2996 2994 ] final    4.02 input   60.00 | X-H torsion
[ 7410 1497 1496 1493 ] final   20.83 input   60.00 | X-H torsion
[ 7137 1220 1219 1216 ] final  108.88 input   60.00 | X-H torsion
[ 6928  995  994  992 ] final  -14.74 input   60.00 | X-H torsion

> <Gold.Protein.ActiveResidues>
 GLU87   ILE88   VAL90   ASN91   ALA92   ASP94   ASN95   ARG98   ILE118  ASN120 
 LYS123  GLY124  ILE125  ILE141  PHE142  THR147  SER148  SER149  ASN150  TYR151 
 GLY160  GLY161  ARG162  ASN163  GLY164  TYR165  GLY166  ALA167  LYS168  LEU169 
 THR181  THR215  ILE217  ILE317  GLN376  LYS378  ILE33   TYR34   MG903  

> <Gold.Protein.RotatedAtoms>
   40.5251    4.2637   42.9006 H   0  0  0  0  0  0  0  0  0  0  0  0  # atno 6899 bound_to 962 
   41.4079   -2.9679   39.6229 H   0  0  0  0  0  0  0  0  0  0  0  0  # atno 6908 bound_to 969 
   37.5191   -4.1070   40.7760 H   0  0  0  0  0  0  0  0  0  0  0  0  # atno 6912 bound_to 975 
   46.5207    1.1682   38.7701 H   0  0  0  0  0  0  0  0  0  0  0  0  # atno 6928 bound_to 995 
   27.9497    0.1194   43.0242 H   0  0  0  0  0  0  0  0  0  0  0  0  # atno 7137 bound_to 1220
   26.6493   -0.6397   41.7859 H   0  0  0  0  0  0  0  0  0  0  0  0  # atno 7410 bound_to 1497
   43.7399    0.4909   29.5418 H   0  0  0  0  0  0  0  0  0  0  0  0  # atno 8924 bound_to 2752
   43.2999   -0.0334   31.0514 H   0  0  0  0  0  0  0  0  0  0  0  0  # atno 8925 bound_to 2752
   43.9746   -1.0929   29.9701 H   0  0  0  0  0  0  0  0  0  0  0  0  # atno 8926 bound_to 2752
   34.4818   -4.1439   43.8120 H   0  0  0  0  0  0  0  0  0  0  0  0  # atno 9165 bound_to 2997
   42.7756   -2.9281   38.7419 LP  0  0  0  0  0  0  0  0  0  0  0  0  # atno 11896 bound_to 969 
   41.4725   -2.0636   38.2715 LP  0  0  0  0  0  0  0  0  0  0  0  0  # atno 11897 bound_to 969 
   37.7899   -5.6942   40.5404 LP  0  0  0  0  0  0  0  0  0  0  0  0  # atno 11898 bound_to 975 
   38.8757   -4.5915   40.0189 LP  0  0  0  0  0  0  0  0  0  0  0  0  # atno 11899 bound_to 975 
   41.0095    3.4070   41.6046 LP  0  0  0  0  0  0  0  0  0  0  0  0  # atno 11904 bound_to 962 
   41.9109    4.6574   42.1438 LP  0  0  0  0  0  0  0  0  0  0  0  0  # atno 11905 bound_to 962 
   33.7818   -3.8846   45.2580 LP  0  0  0  0  0  0  0  0  0  0  0  0  # atno 11912 bound_to 2997
   34.5213   -5.3074   44.9490 LP  0  0  0  0  0  0  0  0  0  0  0  0  # atno 11913 bound_to 2997
   28.0725    0.1468   41.8481 LP  0  0  0  0  0  0  0  0  0  0  0  0  # atno 11922 bound_to 1497
   27.9288   -1.2187   40.9640 LP  0  0  0  0  0  0  0  0  0  0  0  0  # atno 11923 bound_to 1497
   26.7536   -0.1026   44.1049 LP  0  0  0  0  0  0  0  0  0  0  0  0  # atno 11930 bound_to 1220
   28.3124   -0.1288   44.5910 LP  0  0  0  0  0  0  0  0  0  0  0  0  # atno 11931 bound_to 1220

$$$$
****|SGG-4|sdf|1|dock66
  -GOLD-   9 72311493D 1   1.00000     0.00000

 46 48  0  0  0  0  0  0  0  0  1 V2000
   36.1279   -7.3685   40.9520 S   0  0  0  0  0  0  0  0  0  0  0  0
   35.6841   -9.0281   40.9347 C   0  0  0  0  0  0  0  0  0  0  0  0
   35.5960   -9.5785   39.7434 N   0  0  0  0  0  0  0  0  0  0  0  0
   35.8955   -8.6401   38.7762 C   0  0  0  0  0  0  0  0  0  0  0  0
   36.2133   -7.3766   39.2372 C   0  0  0  0  0  0  0  0  0  0  0  0
   36.5497   -6.1356   38.4752 C   0  0  0  0  0  0  0  0  0  0  0  0
   35.0442   -5.3152   37.8585 S   0  0  0  0  0  0  0  0  0  0  0  0
   34.7185   -4.2674   39.2319 C   0  0  0  0  0  0  0  0  0  0  0  0
   33.4291   -4.2041   39.7381 N   0  0  0  0  0  0  0  0  0  0  0  0
   33.1468   -3.3729   40.8151 C   0  0  0  0  0  0  0  0  0  0  0  0
   31.8535   -3.3114   41.3388 O   0  0  0  0  0  0  0  0  0  0  0  0
   34.1214   -2.6247   41.3413 N   0  0  0  0  0  0  0  0  0  0  0  0
   35.3370   -2.7351   40.7920 C   0  0  0  0  0  0  0  0  0  0  0  0
   36.6030   -1.6880   41.4583 S   0  0  0  0  0  0  0  0  0  0  0  0
   36.5305   -0.4249   40.1620 C   0  0  0  0  0  0  0  0  0  0  0  0
   35.1659   -0.3324   39.5279 C   0  0  0  0  0  0  0  0  0  0  0  0
   34.1137    0.3229   40.1785 C   0  0  0  0  0  0  0  0  0  0  0  0
   32.8585    0.4315   39.5715 C   0  0  0  0  0  0  0  0  0  0  0  0
   32.6211   -0.1269   38.3077 C   0  0  0  0  0  0  0  0  0  0  0  0
   33.6746   -0.7925   37.6647 C   0  0  0  0  0  0  0  0  0  0  0  0
   34.9305   -0.8970   38.2678 C   0  0  0  0  0  0  0  0  0  0  0  0
   35.7276   -1.4210   37.7440 H   0  0  0  0  0  0  0  0  0  0  0  0
   33.5275   -1.2338   36.6811 H   0  0  0  0  0  0  0  0  0  0  0  0
   31.2806    0.0007   37.6051 C   0  0  0  0  0  0  0  0  0  0  0  0
   30.8231    1.4608   37.5878 C   0  0  0  0  0  0  0  0  0  0  0  0
   30.6555    1.8446   38.6002 H   0  0  0  0  0  0  0  0  0  0  0  0
   31.5727    2.1009   37.1090 H   0  0  0  0  0  0  0  0  0  0  0  0
   29.8876    1.5666   37.0282 H   0  0  0  0  0  0  0  0  0  0  0  0
   30.1975   -0.8999   38.2050 C   0  0  0  0  0  0  0  0  0  0  0  0
   29.8706   -0.5525   39.1909 H   0  0  0  0  0  0  0  0  0  0  0  0
   30.5571   -1.9291   38.3112 H   0  0  0  0  0  0  0  0  0  0  0  0
   29.3147   -0.9182   37.5564 H   0  0  0  0  0  0  0  0  0  0  0  0
   31.4077   -0.3196   36.5620 H   0  0  0  0  0  0  0  0  0  0  0  0
   32.0715    0.9658   40.0980 H   0  0  0  0  0  0  0  0  0  0  0  0
   34.2644    0.7628   41.1620 H   0  0  0  0  0  0  0  0  0  0  0  0
   37.2663   -0.6446   39.3788 H   0  0  0  0  0  0  0  0  0  0  0  0
   36.8104    0.5446   40.5908 H   0  0  0  0  0  0  0  0  0  0  0  0
   35.6847   -3.5194   39.7647 N   0  0  0  0  0  0  0  0  0  0  0  0
   32.7020   -4.7659   39.3181 H   0  0  0  0  0  0  0  0  0  0  0  0
   37.0854   -5.4467   39.1389 H   0  0  0  0  0  0  0  0  0  0  0  0
   37.2048   -6.3632   37.6273 H   0  0  0  0  0  0  0  0  0  0  0  0
   35.8661   -8.9366   37.7342 H   0  0  0  0  0  0  0  0  0  0  0  0
   35.4112   -9.7418   42.2113 C   0  0  0  0  0  0  0  0  0  0  0  0
   36.2709   -9.6607   42.8845 H   0  0  0  0  0  0  0  0  0  0  0  0
   35.2281  -10.8039   42.0198 H   0  0  0  0  0  0  0  0  0  0  0  0
   34.5410   -9.3229   42.7265 H   0  0  0  0  0  0  0  0  0  0  0  0
  1  2  1  0  0  0  0
  1  5  1  0  0  0  0
  2  3  2  0  0  0  0
  2 43  1  0  0  0  0
  3  4  1  0  0  0  0
  4  5  2  0  0  0  0
  4 42  1  0  0  0  0
  5  6  1  0  0  0  0
  6  7  1  0  0  0  0
  6 40  1  0  0  0  0
  6 41  1  0  0  0  0
  7  8  1  0  0  0  0
  8  9  1  0  0  0  0
  8 38  2  0  0  0  0
  9 10  1  0  0  0  0
  9 39  1  0  0  0  0
 10 11  2  0  0  0  0
 10 12  1  0  0  0  0
 12 13  2  0  0  0  0
 13 14  1  0  0  0  0
 13 38  1  0  0  0  0
 14 15  1  0  0  0  0
 15 16  1  0  0  0  0
 15 36  1  0  0  0  0
 15 37  1  0  0  0  0
 16 17  1  0  0  0  0
 16 21  2  0  0  0  0
 17 18  2  0  0  0  0
 17 35  1  0  0  0  0
 18 19  1  0  0  0  0
 18 34  1  0  0  0  0
 19 20  2  0  0  0  0
 19 24  1  0  0  0  0
 20 21  1  0  0  0  0
 20 23  1  0  0  0  0
 21 22  1  0  0  0  0
 24 25  1  0  0  0  0
 24 29  1  0  0  0  0
 24 33  1  0  0  0  0
 25 26  1  0  0  0  0
 25 27  1  0  0  0  0
 25 28  1  0  0  0  0
 29 30  1  0  0  0  0
 29 31  1  0  0  0  0
 29 32  1  0  0  0  0
 43 44  1  0  0  0  0
 43 45  1  0  0  0  0
 43 46  1  0  0  0  0
M  END
> <Gold.Goldscore.Fitness>
67.7756

> <Gold.Goldscore.External.HBond>
1.4847

> <Gold.Protein.ActiveResidues>
 GLU87   ILE88   VAL90   ASN91   ALA92   ASP94   ASN95   ARG98   ILE118  ASN120 
 LYS123  GLY124  ILE125  ILE141  PHE142  THR147  SER148  SER149  ASN150  TYR151 
 GLY160  GLY161  ARG162  ASN163  GLY164  TYR165  GLY166  ALA167  LYS168  LEU169 
 THR181  THR215  ILE217  ILE317  GLN376  LYS378  ILE33   TYR34   MG903  

> <Gold.Goldscore.Internal.HBond>
0.0

> <Gold.Goldscore.Internal.Torsion.Weighted>
-4.6232

> <Gold.Protein.RotatedTorsions>
[ 8833 2752 2751 2750 ] final  -92.65 input   60.00 | X-H torsion
[ 6906  969  968  965 ] final -179.89 input   59.99 | X-H torsion
[ 6910  975  974  971 ] final  -12.12 input   60.00 | X-H torsion
[ 6897  962  961  958 ] final   71.11 input   60.00 | X-H torsion
[ 9084 2997 2996 2994 ] final  -38.60 input   60.00 | X-H torsion
[ 7406 1497 1496 1493 ] final  170.76 input   60.00 | X-H torsion
[ 7140 1220 1219 1216 ] final  115.27 input   60.00 | X-H torsion
[ 6926  995  994  992 ] final   25.13 input   60.0

> <Gold.Goldscore.Constraint.Score>
0.0

> <Gold.Id.Protein>
1ZXM|1ZXM_protein|mol2

> <Gold.Protein.RotatedAtoms>
   40.6750    3.3830   41.8637 H   0  0  0  0  0  0  0  0  0  0  0  0  # atno 6897 bound_to 962 
   42.5663   -2.5035   38.2571 H   0  0  0  0  0  0  0  0  0  0  0  0  # atno 6906 bound_to 969 
   38.8111   -4.3840   40.0676 H   0  0  0  0  0  0  0  0  0  0  0  0  # atno 6910 bound_to 975 
   45.8911    1.1244   38.6740 H   0  0  0  0  0  0  0  0  0  0  0  0  # atno 6926 bound_to 995 
   28.0475    0.1168   43.0607 H   0  0  0  0  0  0  0  0  0  0  0  0  # atno 7140 bound_to 1220
   28.2838   -0.9017   41.0

> <Gold.Version>
5.3.0

> <Gold.Goldscore.Internal.Correction>
-0.0166

> <Gold.Goldscore.Internal.Vdw>
-1.3472

> <Gold.Goldscore.Internal.Vdw.Weighted>
-1.3472

> <Gold.Goldscore.External.HBond.Weighted>
1.4847

> <Gold.Goldscore.External.Vdw.Weighted>
72.2447

> <Gold.Goldscore.Internal.HBond.Weighted>
0.0

> <Gold.Goldscore.Hbonds>
donor molecule, donor type, donor heavy atom, donor atom, acceptor molecule, acceptor atom, score
      L1  H     1    27       P1   757  0.74

> <Gold.Goldscore.External.Vdw>
52.5416

> <Gold.Goldscore.Internal.Torsion>
-4.6232

> <Gold.Goldscore.Internal.Correction.Weighted>
-0.0166

> <Gold.Version>
5.3.0

> <Gold.Id.Protein>
1ZXM|1ZXM_protein|mol2

> <Gold.ASP.Fitness>
29.8406

> <Gold.ASP.ASP>
31.7540

> <Gold.ASP.Map>
-158.7700

> <Gold.ASP.DEClash>
0.4618

> <Gold.ASP.DEInternal>
1.4516

> <Gold.ASP.Internal.Correction>
0.1091

> <Gold.Protein.RotatedTorsions>
[ 8924 2752 2751 2750 ] final   46.05 input   60.00 | X-H torsion
[ 6908  969  968  965 ] final  -92.30 input   59.99 | X-H torsion
[ 6912  975  974  971 ] final -160.99 input   60.00 | X-H torsion
[ 6899  962  961  958 ] final  -97.83 input   60.00 | X-H torsion
[ 9165 2997 2996 2994 ] final  -27.18 input   60.00 | X-H torsion
[ 7410 1497 1496 1493 ] final  -83.38 input   60.00 | X-H torsion
[ 7137 1220 1219 1216 ] final -124.14 input   60.00 | X-H torsion
[ 6928  995  994  992 ] final  -57.89 input   60.00 | X-H torsion

> <Gold.Protein.ActiveResidues>
 GLU87   ILE88   VAL90   ASN91   ALA92   ASP94   ASN95   ARG98   ILE118  ASN120 
 LYS123  GLY124  ILE125  ILE141  PHE142  THR147  SER148  SER149  ASN150  TYR151 
 GLY160  GLY161  ARG162  ASN163  GLY164  TYR165  GLY166  ALA167  LYS168  LEU169 
 THR181  THR215  ILE217  ILE317  GLN376  LYS378  ILE33   TYR34   MG903  

> <Gold.Protein.RotatedAtoms>
   41.7379    4.8008   42.4410 H   0  0  0  0  0  0  0  0  0  0  0  0  # atno 6899 bound_to 962 
   42.4793   -3.2141   39.3373 H   0  0  0  0  0  0  0  0  0  0  0  0  # atno 6908 bound_to 969 
   37.2410   -4.7146   40.8916 H   0  0  0  0  0  0  0  0  0  0  0  0  # atno 6912 bound_to 975 
   46.9547    1.3188   39.2829 H   0  0  0  0  0  0  0  0  0  0  0  0  # atno 6928 bound_to 995 
   28.2195   -0.1406   44.6572 H   0  0  0  0  0  0  0  0  0  0  0  0  # atno 7137 bound_to 1220
   27.8480    0.2061   41.9610 H   0  0  0  0  0  0  0  0  0  0  0  0  # atno 7410 bound_to 1497
   43.8763    0.2216   29.3596 H   0  0  0  0  0  0  0  0  0  0  0  0  # atno 8924 bound_to 2752
   43.2760    0.2857   30.9032 H   0  0  0  0  0  0  0  0  0  0  0  0  # atno 8925 bound_to 2752
   43.8621   -1.1428   30.3005 H   0  0  0  0  0  0  0  0  0  0  0  0  # atno 8926 bound_to 2752
   34.2306   -3.7647   44.0281 H   0  0  0  0  0  0  0  0  0  0  0  0  # atno 9165 bound_to 2997
   42.1577   -2.2210   38.0889 LP  0  0  0  0  0  0  0  0  0  0  0  0  # atno 11896 bound_to 969 
   41.0114   -2.5229   39.2121 LP  0  0  0  0  0  0  0  0  0  0  0  0  # atno 11897 bound_to 969 
   38.3915   -5.6493   40.2202 LP  0  0  0  0  0  0  0  0  0  0  0  0  # atno 11898 bound_to 975 
   38.5541   -4.0244   40.2227 LP  0  0  0  0  0  0  0  0  0  0  0  0  # atno 11899 bound_to 975 
   40.3666    3.9734   42.7291 LP  0  0  0  0  0  0  0  0  0  0  0  0  # atno 11904 bound_to 962 
   41.3324    3.5500   41.4822 LP  0  0  0  0  0  0  0  0  0  0  0  0  # atno 11905 bound_to 962 
   33.8631   -4.3140   45.5151 LP  0  0  0  0  0  0  0  0  0  0  0  0  # atno 11912 bound_to 2997
   34.6929   -5.2598   44.4742 LP  0  0  0  0  0  0  0  0  0  0  0  0  # atno 11913 bound_to 2997
   28.1389   -1.0704   40.9947 LP  0  0  0  0  0  0  0  0  0  0  0  0  # atno 11922 bound_to 1497
   26.6551   -0.8533   41.6410 LP  0  0  0  0  0  0  0  0  0  0  0  0  # atno 11923 bound_to 1497
   28.0591    0.1153   43.0583 LP  0  0  0  0  0  0  0  0  0  0  0  0  # atno 11930 bound_to 1220
   26.7351   -0.0848   43.9929 LP  0  0  0  0  0  0  0  0  0  0  0  0  # atno 11931 bound_to 1220

$$$$
****|SGG-4|sdf|1|dock4
  -GOLD-   9 72311443D 1   1.00000     0.00000

 46 48  0  0  0  0  0  0  0  0  1 V2000
   36.8268   -5.9113   37.8446 S   0  0  0  0  0  0  0  0  0  0  0  0
   35.4828   -6.9780   37.9303 C   0  0  0  0  0  0  0  0  0  0  0  0
   34.3022   -6.3996   37.9699 N   0  0  0  0  0  0  0  0  0  0  0  0
   34.4566   -5.0283   37.9308 C   0  0  0  0  0  0  0  0  0  0  0  0
   35.7577   -4.5680   37.8592 C   0  0  0  0  0  0  0  0  0  0  0  0
   36.2779   -3.1670   37.8357 C   0  0  0  0  0  0  0  0  0  0  0  0
   37.2181   -2.8412   36.3092 S   0  0  0  0  0  0  0  0  0  0  0  0
   38.2635   -1.5563   36.8978 C   0  0  0  0  0  0  0  0  0  0  0  0
   39.3474   -1.1653   36.1265 N   0  0  0  0  0  0  0  0  0  0  0  0
   40.1939   -0.1606   36.5785 C   0  0  0  0  0  0  0  0  0  0  0  0
   41.2816    0.2476   35.8031 O   0  0  0  0  0  0  0  0  0  0  0  0
   39.9648    0.4071   37.7667 N   0  0  0  0  0  0  0  0  0  0  0  0
   38.9040   -0.0307   38.4555 C   0  0  0  0  0  0  0  0  0  0  0  0
   38.6520    0.6857   40.0575 S   0  0  0  0  0  0  0  0  0  0  0  0
   37.2627    1.7506   39.5919 C   0  0  0  0  0  0  0  0  0  0  0  0
   35.9673    0.9873   39.4824 C   0  0  0  0  0  0  0  0  0  0  0  0
   35.5769    0.0867   40.4806 C   0  0  0  0  0  0  0  0  0  0  0  0
   34.3597   -0.5955   40.3878 C   0  0  0  0  0  0  0  0  0  0  0  0
   33.5123   -0.4062   39.2870 C   0  0  0  0  0  0  0  0  0  0  0  0
   33.9127    0.4880   38.2838 C   0  0  0  0  0  0  0  0  0  0  0  0
   35.1260    1.1741   38.3781 C   0  0  0  0  0  0  0  0  0  0  0  0
   35.4096    1.8604   37.5826 H   0  0  0  0  0  0  0  0  0  0  0  0
   33.2779    0.6629   37.4177 H   0  0  0  0  0  0  0  0  0  0  0  0
   32.1690   -1.1052   39.1698 C   0  0  0  0  0  0  0  0  0  0  0  0
   31.0382   -0.0782   39.0797 C   0  0  0  0  0  0  0  0  0  0  0  0
   30.9690    0.5287   39.9892 H   0  0  0  0  0  0  0  0  0  0  0  0
   31.1939    0.6034   38.2359 H   0  0  0  0  0  0  0  0  0  0  0  0
   30.0739   -0.5762   38.9327 H   0  0  0  0  0  0  0  0  0  0  0  0
   31.9072   -2.1019   40.3022 C   0  0  0  0  0  0  0  0  0  0  0  0
   31.7199   -1.6013   41.2582 H   0  0  0  0  0  0  0  0  0  0  0  0
   32.7592   -2.7774   40.4354 H   0  0  0  0  0  0  0  0  0  0  0  0
   31.0266   -2.7131   40.0760 H   0  0  0  0  0  0  0  0  0  0  0  0
   32.1644   -1.6865   38.2378 H   0  0  0  0  0  0  0  0  0  0  0  0
   34.0803   -1.2712   41.1924 H   0  0  0  0  0  0  0  0  0  0  0  0
   36.2143   -0.0859   41.3452 H   0  0  0  0  0  0  0  0  0  0  0  0
   37.4651    2.2366   38.6295 H   0  0  0  0  0  0  0  0  0  0  0  0
   37.1628    2.5531   40.3324 H   0  0  0  0  0  0  0  0  0  0  0  0
   38.0414   -0.9828   38.0805 N   0  0  0  0  0  0  0  0  0  0  0  0
   39.5134   -1.6160   35.2376 H   0  0  0  0  0  0  0  0  0  0  0  0
   35.4304   -2.4734   37.8880 H   0  0  0  0  0  0  0  0  0  0  0  0
   36.9232   -2.9752   38.6998 H   0  0  0  0  0  0  0  0  0  0  0  0
   33.5722   -4.4024   37.9578 H   0  0  0  0  0  0  0  0  0  0  0  0
   35.6984   -8.4495   37.9725 C   0  0  0  0  0  0  0  0  0  0  0  0
   36.2926   -8.7725   37.1115 H   0  0  0  0  0  0  0  0  0  0  0  0
   34.7383   -8.9741   37.9394 H   0  0  0  0  0  0  0  0  0  0  0  0
   36.2317   -8.7504   38.8799 H   0  0  0  0  0  0  0  0  0  0  0  0
  1  2  1  0  0  0  0
  1  5  1  0  0  0  0
  2  3  2  0  0  0  0
  2 43  1  0  0  0  0
  3  4  1  0  0  0  0
  4  5  2  0  0  0  0
  4 42  1  0  0  0  0
  5  6  1  0  0  0  0
  6  7  1  0  0  0  0
  6 40  1  0  0  0  0
  6 41  1  0  0  0  0
  7  8  1  0  0  0  0
  8  9  1  0  0  0  0
  8 38  2  0  0  0  0
  9 10  1  0  0  0  0
  9 39  1  0  0  0  0
 10 11  2  0  0  0  0
 10 12  1  0  0  0  0
 12 13  2  0  0  0  0
 13 14  1  0  0  0  0
 13 38  1  0  0  0  0
 14 15  1  0  0  0  0
 15 16  1  0  0  0  0
 15 36  1  0  0  0  0
 15 37  1  0  0  0  0
 16 17  1  0  0  0  0
 16 21  2  0  0  0  0
 17 18  2  0  0  0  0
 17 35  1  0  0  0  0
 18 19  1  0  0  0  0
 18 34  1  0  0  0  0
 19 20  2  0  0  0  0
 19 24  1  0  0  0  0
 20 21  1  0  0  0  0
 20 23  1  0  0  0  0
 21 22  1  0  0  0  0
 24 25  1  0  0  0  0
 24 29  1  0  0  0  0
 24 33  1  0  0  0  0
 25 26  1  0  0  0  0
 25 27  1  0  0  0  0
 25 28  1  0  0  0  0
 29 30  1  0  0  0  0
 29 31  1  0  0  0  0
 29 32  1  0  0  0  0
 43 44  1  0  0  0  0
 43 45  1  0  0  0  0
 43 46  1  0  0  0  0
M  END
> <Gold.Goldscore.Fitness>
67.7756

> <Gold.Goldscore.External.HBond>
1.4847

> <Gold.Protein.ActiveResidues>
 GLU87   ILE88   VAL90   ASN91   ALA92   ASP94   ASN95   ARG98   ILE118  ASN120 
 LYS123  GLY124  ILE125  ILE141  PHE142  THR147  SER148  SER149  ASN150  TYR151 
 GLY160  GLY161  ARG162  ASN163  GLY164  TYR165  GLY166  ALA167  LYS168  LEU169 
 THR181  THR215  ILE217  ILE317  GLN376  LYS378  ILE33   TYR34   MG903  

> <Gold.Goldscore.Internal.HBond>
0.0

> <Gold.Goldscore.Internal.Torsion.Weighted>
-4.6232

> <Gold.Protein.RotatedTorsions>
[ 8833 2752 2751 2750 ] final  -92.65 input   60.00 | X-H torsion
[ 6906  969  968  965 ] final -179.89 input   59.99 | X-H torsion
[ 6910  975  974  971 ] final  -12.12 input   60.00 | X-H torsion
[ 6897  962  961  958 ] final   71.11 input   60.00 | X-H torsion
[ 9084 2997 2996 2994 ] final  -38.60 input   60.00 | X-H torsion
[ 7406 1497 1496 1493 ] final  170.76 input   60.00 | X-H torsion
[ 7140 1220 1219 1216 ] final  115.27 input   60.00 | X-H torsion
[ 6926  995  994  992 ] final   25.13 input   60.0

> <Gold.Goldscore.Constraint.Score>
0.0

> <Gold.Id.Protein>
1ZXM|1ZXM_protein|mol2

> <Gold.Protein.RotatedAtoms>
   40.6750    3.3830   41.8637 H   0  0  0  0  0  0  0  0  0  0  0  0  # atno 6897 bound_to 962 
   42.5663   -2.5035   38.2571 H   0  0  0  0  0  0  0  0  0  0  0  0  # atno 6906 bound_to 969 
   38.8111   -4.3840   40.0676 H   0  0  0  0  0  0  0  0  0  0  0  0  # atno 6910 bound_to 975 
   45.8911    1.1244   38.6740 H   0  0  0  0  0  0  0  0  0  0  0  0  # atno 6926 bound_to 995 
   28.0475    0.1168   43.0607 H   0  0  0  0  0  0  0  0  0  0  0  0  # atno 7140 bound_to 1220
   28.2838   -0.9017   41.0

> <Gold.Version>
5.3.0

> <Gold.Goldscore.Internal.Correction>
-0.0166

> <Gold.Goldscore.Internal.Vdw>
-1.3472

> <Gold.Goldscore.Internal.Vdw.Weighted>
-1.3472

> <Gold.Goldscore.External.HBond.Weighted>
1.4847

> <Gold.Goldscore.External.Vdw.Weighted>
72.2447

> <Gold.Goldscore.Internal.HBond.Weighted>
0.0

> <Gold.Goldscore.Hbonds>
donor molecule, donor type, donor heavy atom, donor atom, acceptor molecule, acceptor atom, score
      L1  H     1    27       P1   757  0.74

> <Gold.Goldscore.External.Vdw>
52.5416

> <Gold.Goldscore.Internal.Torsion>
-4.6232

> <Gold.Goldscore.Internal.Correction.Weighted>
-0.0166

> <Gold.Version>
5.3.0

> <Gold.Id.Protein>
1ZXM|1ZXM_protein|mol2

> <Gold.ASP.Fitness>
29.8168

> <Gold.ASP.ASP>
32.2580

> <Gold.ASP.Map>
-161.2900

> <Gold.ASP.DEClash>
1.8225

> <Gold.ASP.DEInternal>
0.6187

> <Gold.ASP.Internal.Correction>
0.1091

> <Gold.Protein.RotatedTorsions>
[ 8924 2752 2751 2750 ] final  133.26 input   60.00 | X-H torsion
[ 6908  969  968  965 ] final -129.91 input   59.99 | X-H torsion
[ 6912  975  974  971 ] final   -2.81 input   60.00 | X-H torsion
[ 6899  962  961  958 ] final   70.16 input   60.00 | X-H torsion
[ 9165 2997 2996 2994 ] final -149.36 input   60.00 | X-H torsion
[ 7410 1497 1496 1493 ] final  -19.03 input   60.00 | X-H torsion
[ 7137 1220 1219 1216 ] final  -22.25 input   60.00 | X-H torsion
[ 6928  995  994  992 ] final   26.98 input   60.00 | X-H torsion

> <Gold.Protein.ActiveResidues>
 GLU87   ILE88   VAL90   ASN91   ALA92   ASP94   ASN95   ARG98   ILE118  ASN120 
 LYS123  GLY124  ILE125  ILE141  PHE142  THR147  SER148  SER149  ASN150  TYR151 
 GLY160  GLY161  ARG162  ASN163  GLY164  TYR165  GLY166  ALA167  LYS168  LEU169 
 THR181  THR215  ILE217  ILE317  GLN376  LYS378  ILE33   TYR34   MG903  

> <Gold.Protein.RotatedAtoms>
   40.6860    3.3814   41.8528 H   0  0  0  0  0  0  0  0  0  0  0  0  # atno 6899 bound_to 962 
   42.7568   -2.9918   38.8495 H   0  0  0  0  0  0  0  0  0  0  0  0  # atno 6908 bound_to 969 
   38.8569   -4.5253   40.0353 H   0  0  0  0  0  0  0  0  0  0  0  0  # atno 6912 bound_to 975 
   45.8615    1.1252   38.6800 H   0  0  0  0  0  0  0  0  0  0  0  0  # atno 6928 bound_to 995 
   26.8171   -0.1260   44.2742 H   0  0  0  0  0  0  0  0  0  0  0  0  # atno 7137 bound_to 1220
   26.9109   -0.1217   42.0517 H   0  0  0  0  0  0  0  0  0  0  0  0  # atno 7410 bound_to 1497
   43.3435    0.6331   30.4951 H   0  0  0  0  0  0  0  0  0  0  0  0  # atno 8924 bound_to 2752
   43.6440   -0.9745   30.7652 H   0  0  0  0  0  0  0  0  0  0  0  0  # atno 8925 bound_to 2752
   44.0268   -0.2940   29.3031 H   0  0  0  0  0  0  0  0  0  0  0  0  # atno 8926 bound_to 2752
   33.8784   -4.3468   45.5193 H   0  0  0  0  0  0  0  0  0  0  0  0  # atno 9165 bound_to 2997
   41.5824   -2.0655   38.2085 LP  0  0  0  0  0  0  0  0  0  0  0  0  # atno 11896 bound_to 969 
   41.3073   -2.9022   39.5837 LP  0  0  0  0  0  0  0  0  0  0  0  0  # atno 11897 bound_to 969 
   37.4688   -4.1516   40.7979 LP  0  0  0  0  0  0  0  0  0  0  0  0  # atno 11898 bound_to 975 
   37.8495   -5.7128   40.5074 LP  0  0  0  0  0  0  0  0  0  0  0  0  # atno 11899 bound_to 975 
   41.9587    4.3951   41.8324 LP  0  0  0  0  0  0  0  0  0  0  0  0  # atno 11904 bound_to 962 
   40.7998    4.5579   42.9713 LP  0  0  0  0  0  0  0  0  0  0  0  0  # atno 11905 bound_to 962 
   34.7006   -5.2471   44.4416 LP  0  0  0  0  0  0  0  0  0  0  0  0  # atno 11912 bound_to 2997
   34.2101   -3.7406   44.0460 LP  0  0  0  0  0  0  0  0  0  0  0  0  # atno 11913 bound_to 2997
   28.4263   -0.2337   41.4695 LP  0  0  0  0  0  0  0  0  0  0  0  0  # atno 11922 bound_to 1497
   27.3116   -1.3599   41.0748 LP  0  0  0  0  0  0  0  0  0  0  0  0  # atno 11923 bound_to 1497
   28.4339   -0.1024   44.4569 LP  0  0  0  0  0  0  0  0  0  0  0  0  # atno 11930 bound_to 1220
   27.7728    0.1183   42.9801 LP  0  0  0  0  0  0  0  0  0  0  0  0  # atno 11931 bound_to 1220

$$$$
****|SGG-4|sdf|1|dock14
  -GOLD-   9 72311443D 1   1.00000     0.00000

 46 48  0  0  0  0  0  0  0  0  1 V2000
   36.3330    0.2393   38.1265 S   0  0  0  0  0  0  0  0  0  0  0  0
   36.8552    1.4525   39.2251 C   0  0  0  0  0  0  0  0  0  0  0  0
   38.1102    1.3665   39.6093 N   0  0  0  0  0  0  0  0  0  0  0  0
   38.7063    0.2780   39.0046 C   0  0  0  0  0  0  0  0  0  0  0  0
   37.9006   -0.4604   38.1587 C   0  0  0  0  0  0  0  0  0  0  0  0
   38.2092   -1.6989   37.3811 C   0  0  0  0  0  0  0  0  0  0  0  0
   36.7699   -2.2344   36.4004 S   0  0  0  0  0  0  0  0  0  0  0  0
   36.0251   -3.3144   37.5705 C   0  0  0  0  0  0  0  0  0  0  0  0
   35.8555   -4.6502   37.2394 N   0  0  0  0  0  0  0  0  0  0  0  0
   35.2577   -5.5186   38.1443 C   0  0  0  0  0  0  0  0  0  0  0  0
   35.0930   -6.8680   37.8238 O   0  0  0  0  0  0  0  0  0  0  0  0
   34.8322   -5.0506   39.3218 N   0  0  0  0  0  0  0  0  0  0  0  0
   35.0241   -3.7483   39.5640 C   0  0  0  0  0  0  0  0  0  0  0  0
   34.3956   -3.1299   41.1021 S   0  0  0  0  0  0  0  0  0  0  0  0
   32.6396   -3.2869   40.6863 C   0  0  0  0  0  0  0  0  0  0  0  0
   32.1462   -2.1398   39.8415 C   0  0  0  0  0  0  0  0  0  0  0  0
   31.1052   -2.3193   38.9229 C   0  0  0  0  0  0  0  0  0  0  0  0
   30.6318   -1.2441   38.1642 C   0  0  0  0  0  0  0  0  0  0  0  0
   31.1991    0.0314   38.2937 C   0  0  0  0  0  0  0  0  0  0  0  0
   32.2494    0.2040   39.2066 C   0  0  0  0  0  0  0  0  0  0  0  0
   32.7195   -0.8681   39.9690 C   0  0  0  0  0  0  0  0  0  0  0  0
   33.5370   -0.7027   40.6680 H   0  0  0  0  0  0  0  0  0  0  0  0
   32.7102    1.1810   39.3364 H   0  0  0  0  0  0  0  0  0  0  0  0
   30.6883    1.2280   37.5101 C   0  0  0  0  0  0  0  0  0  0  0  0
   29.9254    0.7664   36.2665 C   0  0  0  0  0  0  0  0  0  0  0  0
   30.5749    0.2228   35.5716 H   0  0  0  0  0  0  0  0  0  0  0  0
   29.0982    0.1010   36.5385 H   0  0  0  0  0  0  0  0  0  0  0  0
   29.5021    1.6234   35.7319 H   0  0  0  0  0  0  0  0  0  0  0  0
   31.7938    2.2174   37.1318 C   0  0  0  0  0  0  0  0  0  0  0  0
   32.4582    1.8185   36.3578 H   0  0  0  0  0  0  0  0  0  0  0  0
   32.4057    2.4744   38.0032 H   0  0  0  0  0  0  0  0  0  0  0  0
   31.3588    3.1444   36.7422 H   0  0  0  0  0  0  0  0  0  0  0  0
   29.9829    1.7795   38.1464 H   0  0  0  0  0  0  0  0  0  0  0  0
   29.8080   -1.4169   37.4761 H   0  0  0  0  0  0  0  0  0  0  0  0
   30.6470   -3.2976   38.7955 H   0  0  0  0  0  0  0  0  0  0  0  0
   32.0371   -3.3320   41.6017 H   0  0  0  0  0  0  0  0  0  0  0  0
   32.4798   -4.2353   40.1597 H   0  0  0  0  0  0  0  0  0  0  0  0
   35.5999   -2.8571   38.7483 N   0  0  0  0  0  0  0  0  0  0  0  0
   36.1700   -4.9829   36.3387 H   0  0  0  0  0  0  0  0  0  0  0  0
   39.0461   -1.4923   36.7034 H   0  0  0  0  0  0  0  0  0  0  0  0
   38.5098   -2.5143   38.0479 H   0  0  0  0  0  0  0  0  0  0  0  0
   39.7470    0.0661   39.2201 H   0  0  0  0  0  0  0  0  0  0  0  0
   35.9041    2.4968   39.6923 C   0  0  0  0  0  0  0  0  0  0  0  0
   35.4668    3.0237   38.8379 H   0  0  0  0  0  0  0  0  0  0  0  0
   36.4242    3.2315   40.3151 H   0  0  0  0  0  0  0  0  0  0  0  0
   35.0847    2.0615   40.2731 H   0  0  0  0  0  0  0  0  0  0  0  0
  1  2  1  0  0  0  0
  1  5  1  0  0  0  0
  2  3  2  0  0  0  0
  2 43  1  0  0  0  0
  3  4  1  0  0  0  0
  4  5  2  0  0  0  0
  4 42  1  0  0  0  0
  5  6  1  0  0  0  0
  6  7  1  0  0  0  0
  6 40  1  0  0  0  0
  6 41  1  0  0  0  0
  7  8  1  0  0  0  0
  8  9  1  0  0  0  0
  8 38  2  0  0  0  0
  9 10  1  0  0  0  0
  9 39  1  0  0  0  0
 10 11  2  0  0  0  0
 10 12  1  0  0  0  0
 12 13  2  0  0  0  0
 13 14  1  0  0  0  0
 13 38  1  0  0  0  0
 14 15  1  0  0  0  0
 15 16  1  0  0  0  0
 15 36  1  0  0  0  0
 15 37  1  0  0  0  0
 16 17  1  0  0  0  0
 16 21  2  0  0  0  0
 17 18  2  0  0  0  0
 17 35  1  0  0  0  0
 18 19  1  0  0  0  0
 18 34  1  0  0  0  0
 19 20  2  0  0  0  0
 19 24  1  0  0  0  0
 20 21  1  0  0  0  0
 20 23  1  0  0  0  0
 21 22  1  0  0  0  0
 24 25  1  0  0  0  0
 24 29  1  0  0  0  0
 24 33  1  0  0  0  0
 25 26  1  0  0  0  0
 25 27  1  0  0  0  0
 25 28  1  0  0  0  0
 29 30  1  0  0  0  0
 29 31  1  0  0  0  0
 29 32  1  0  0  0  0
 43 44  1  0  0  0  0
 43 45  1  0  0  0  0
 43 46  1  0  0  0  0
M  END
> <Gold.Goldscore.Fitness>
67.7756

> <Gold.Goldscore.External.HBond>
1.4847

> <Gold.Protein.ActiveResidues>
 GLU87   ILE88   VAL90   ASN91   ALA92   ASP94   ASN95   ARG98   ILE118  ASN120 
 LYS123  GLY124  ILE125  ILE141  PHE142  THR147  SER148  SER149  ASN150  TYR151 
 GLY160  GLY161  ARG162  ASN163  GLY164  TYR165  GLY166  ALA167  LYS168  LEU169 
 THR181  THR215  ILE217  ILE317  GLN376  LYS378  ILE33   TYR34   MG903  

> <Gold.Goldscore.Internal.HBond>
0.0

> <Gold.Goldscore.Internal.Torsion.Weighted>
-4.6232

> <Gold.Protein.RotatedTorsions>
[ 8833 2752 2751 2750 ] final  -92.65 input   60.00 | X-H torsion
[ 6906  969  968  965 ] final -179.89 input   59.99 | X-H torsion
[ 6910  975  974  971 ] final  -12.12 input   60.00 | X-H torsion
[ 6897  962  961  958 ] final   71.11 input   60.00 | X-H torsion
[ 9084 2997 2996 2994 ] final  -38.60 input   60.00 | X-H torsion
[ 7406 1497 1496 1493 ] final  170.76 input   60.00 | X-H torsion
[ 7140 1220 1219 1216 ] final  115.27 input   60.00 | X-H torsion
[ 6926  995  994  992 ] final   25.13 input   60.0

> <Gold.Goldscore.Constraint.Score>
0.0

> <Gold.Id.Protein>
1ZXM|1ZXM_protein|mol2

> <Gold.Protein.RotatedAtoms>
   40.6750    3.3830   41.8637 H   0  0  0  0  0  0  0  0  0  0  0  0  # atno 6897 bound_to 962 
   42.5663   -2.5035   38.2571 H   0  0  0  0  0  0  0  0  0  0  0  0  # atno 6906 bound_to 969 
   38.8111   -4.3840   40.0676 H   0  0  0  0  0  0  0  0  0  0  0  0  # atno 6910 bound_to 975 
   45.8911    1.1244   38.6740 H   0  0  0  0  0  0  0  0  0  0  0  0  # atno 6926 bound_to 995 
   28.0475    0.1168   43.0607 H   0  0  0  0  0  0  0  0  0  0  0  0  # atno 7140 bound_to 1220
   28.2838   -0.9017   41.0

> <Gold.Version>
5.3.0

> <Gold.Goldscore.Internal.Correction>
-0.0166

> <Gold.Goldscore.Internal.Vdw>
-1.3472

> <Gold.Goldscore.Internal.Vdw.Weighted>
-1.3472

> <Gold.Goldscore.External.HBond.Weighted>
1.4847

> <Gold.Goldscore.External.Vdw.Weighted>
72.2447

> <Gold.Goldscore.Internal.HBond.Weighted>
0.0

> <Gold.Goldscore.Hbonds>
donor molecule, donor type, donor heavy atom, donor atom, acceptor molecule, acceptor atom, score
      L1  H     1    27       P1   757  0.74

> <Gold.Goldscore.External.Vdw>
52.5416

> <Gold.Goldscore.Internal.Torsion>
-4.6232

> <Gold.Goldscore.Internal.Correction.Weighted>
-0.0166

> <Gold.Version>
5.3.0

> <Gold.Id.Protein>
1ZXM|1ZXM_protein|mol2

> <Gold.ASP.Fitness>
29.6699

> <Gold.ASP.ASP>
31.0100

> <Gold.ASP.Map>
-155.0500

> <Gold.ASP.DEClash>
0.0237

> <Gold.ASP.DEInternal>
1.3164

> <Gold.ASP.Internal.Correction>
0.1091

> <Gold.Protein.RotatedTorsions>
[ 8924 2752 2751 2750 ] final   35.78 input   60.00 | X-H torsion
[ 6908  969  968  965 ] final -128.90 input   59.99 | X-H torsion
[ 6912  975  974  971 ] final   41.59 input   60.00 | X-H torsion
[ 6899  962  961  958 ] final -108.98 input   60.00 | X-H torsion
[ 9165 2997 2996 2994 ] final -135.92 input   60.00 | X-H torsion
[ 7410 1497 1496 1493 ] final  112.85 input   60.00 | X-H torsion
[ 7137 1220 1219 1216 ] final -134.34 input   60.00 | X-H torsion
[ 6928  995  994  992 ] final   39.99 input   60.00 | X-H torsion

> <Gold.Protein.ActiveResidues>
 GLU87   ILE88   VAL90   ASN91   ALA92   ASP94   ASN95   ARG98   ILE118  ASN120 
 LYS123  GLY124  ILE125  ILE141  PHE142  THR147  SER148  SER149  ASN150  TYR151 
 GLY160  GLY161  ARG162  ASN163  GLY164  TYR165  GLY166  ALA167  LYS168  LEU169 
 THR181  THR215  ILE217  ILE317  GLN376  LYS378  ILE33   TYR34   MG903  

> <Gold.Protein.RotatedAtoms>
   41.6197    4.8347   42.5750 H   0  0  0  0  0  0  0  0  0  0  0  0  # atno 6899 bound_to 962 
   42.7539   -3.0002   38.8634 H   0  0  0  0  0  0  0  0  0  0  0  0  # atno 6908 bound_to 969 
   38.7824   -5.2289   40.0364 H   0  0  0  0  0  0  0  0  0  0  0  0  # atno 6912 bound_to 975 
   45.6609    1.1377   38.7478 H   0  0  0  0  0  0  0  0  0  0  0  0  # atno 6928 bound_to 995 
   28.3453   -0.1186   44.5504 H   0  0  0  0  0  0  0  0  0  0  0  0  # atno 7137 bound_to 1220
   27.4970   -1.3497   41.0166 H   0  0  0  0  0  0  0  0  0  0  0  0  # atno 7410 bound_to 1497
   43.9334    0.0676   29.3108 H   0  0  0  0  0  0  0  0  0  0  0  0  # atno 8924 bound_to 2752
   43.2838    0.4182   30.7949 H   0  0  0  0  0  0  0  0  0  0  0  0  # atno 8925 bound_to 2752
   43.7972   -1.1212   30.4576 H   0  0  0  0  0  0  0  0  0  0  0  0  # atno 8926 bound_to 2752
   33.8235   -4.1487   45.4434 H   0  0  0  0  0  0  0  0  0  0  0  0  # atno 9165 bound_to 2997
   41.5972   -2.0666   38.2012 LP  0  0  0  0  0  0  0  0  0  0  0  0  # atno 11896 bound_to 969 
   41.2954   -2.8927   39.5771 LP  0  0  0  0  0  0  0  0  0  0  0  0  # atno 11897 bound_to 969 
   38.0464   -3.8550   40.5044 LP  0  0  0  0  0  0  0  0  0  0  0  0  # atno 11898 bound_to 975 
   37.3470   -5.3008   40.7997 LP  0  0  0  0  0  0  0  0  0  0  0  0  # atno 11899 bound_to 975 
   40.3357    3.8356   42.6124 LP  0  0  0  0  0  0  0  0  0  0  0  0  # atno 11904 bound_to 962 
   41.4824    3.6537   41.4640 LP  0  0  0  0  0  0  0  0  0  0  0  0  # atno 11905 bound_to 962 
   34.6434   -5.3065   44.6462 LP  0  0  0  0  0  0  0  0  0  0  0  0  # atno 11912 bound_to 2997
   34.3225   -3.8806   43.9179 LP  0  0  0  0  0  0  0  0  0  0  0  0  # atno 11913 bound_to 2997
   26.7881   -0.2634   41.9991 LP  0  0  0  0  0  0  0  0  0  0  0  0  # atno 11922 bound_to 1497
   28.3593   -0.0934   41.5878 LP  0  0  0  0  0  0  0  0  0  0  0  0  # atno 11923 bound_to 1497
   27.9008    0.1189   43.0032 LP  0  0  0  0  0  0  0  0  0  0  0  0  # atno 11930 bound_to 1220
   26.7667   -0.1105   44.1555 LP  0  0  0  0  0  0  0  0  0  0  0  0  # atno 11931 bound_to 1220

$$$$
****|SGG-4|sdf|1|dock91
  -GOLD-   9 72311513D 1   1.00000     0.00000

 46 48  0  0  0  0  0  0  0  0  1 V2000
   35.5553   -2.8818   40.0548 S   0  0  0  0  0  0  0  0  0  0  0  0
   34.9422   -4.4426   40.4283 C   0  0  0  0  0  0  0  0  0  0  0  0
   34.6023   -5.1802   39.3937 N   0  0  0  0  0  0  0  0  0  0  0  0
   34.8364   -4.4788   38.2279 C   0  0  0  0  0  0  0  0  0  0  0  0
   35.3569   -3.2078   38.3808 C   0  0  0  0  0  0  0  0  0  0  0  0
   35.6927   -2.1798   37.3491 C   0  0  0  0  0  0  0  0  0  0  0  0
   37.1546   -2.6746   36.3806 S   0  0  0  0  0  0  0  0  0  0  0  0
   38.1079   -1.2074   36.5504 C   0  0  0  0  0  0  0  0  0  0  0  0
   39.3691   -1.1552   35.9767 N   0  0  0  0  0  0  0  0  0  0  0  0
   40.1446   -0.0100   36.1094 C   0  0  0  0  0  0  0  0  0  0  0  0
   41.4116    0.0558   35.5253 O   0  0  0  0  0  0  0  0  0  0  0  0
   39.6724    1.0264   36.8090 N   0  0  0  0  0  0  0  0  0  0  0  0
   38.4503    0.8961   37.3393 C   0  0  0  0  0  0  0  0  0  0  0  0
   37.8655    2.2531   38.3188 S   0  0  0  0  0  0  0  0  0  0  0  0
   37.2153    1.2573   39.6850 C   0  0  0  0  0  0  0  0  0  0  0  0
   35.7651    0.8943   39.4898 C   0  0  0  0  0  0  0  0  0  0  0  0
   35.0698    0.1641   40.4609 C   0  0  0  0  0  0  0  0  0  0  0  0
   33.7166   -0.1431   40.2875 C   0  0  0  0  0  0  0  0  0  0  0  0
   33.0313    0.2577   39.1319 C   0  0  0  0  0  0  0  0  0  0  0  0
   33.7347    0.9790   38.1566 C   0  0  0  0  0  0  0  0  0  0  0  0
   35.0852    1.2911   38.3312 C   0  0  0  0  0  0  0  0  0  0  0  0
   35.6040    1.8509   37.5554 H   0  0  0  0  0  0  0  0  0  0  0  0
   33.2336    1.3101   37.2494 H   0  0  0  0  0  0  0  0  0  0  0  0
   31.5543   -0.0299   38.9258 C   0  0  0  0  0  0  0  0  0  0  0  0
   31.2688   -1.5213   39.1146 C   0  0  0  0  0  0  0  0  0  0  0  0
   31.7882   -2.1310   38.3670 H   0  0  0  0  0  0  0  0  0  0  0  0
   31.5939   -1.8605   40.1047 H   0  0  0  0  0  0  0  0  0  0  0  0
   30.1960   -1.7239   39.0283 H   0  0  0  0  0  0  0  0  0  0  0  0
   31.0288    0.4555   37.5721 C   0  0  0  0  0  0  0  0  0  0  0  0
   31.4052   -0.1507   36.7412 H   0  0  0  0  0  0  0  0  0  0  0  0
   31.3174    1.4963   37.3892 H   0  0  0  0  0  0  0  0  0  0  0  0
   29.9349    0.4012   37.5462 H   0  0  0  0  0  0  0  0  0  0  0  0
   30.9878    0.5161   39.6923 H   0  0  0  0  0  0  0  0  0  0  0  0
   33.2042   -0.6938   41.0725 H   0  0  0  0  0  0  0  0  0  0  0  0
   35.5741   -0.1657   41.3666 H   0  0  0  0  0  0  0  0  0  0  0  0
   37.3154    1.8028   40.6313 H   0  0  0  0  0  0  0  0  0  0  0  0
   37.8188    0.3471   39.7835 H   0  0  0  0  0  0  0  0  0  0  0  0
   37.6441   -0.1680   37.2443 N   0  0  0  0  0  0  0  0  0  0  0  0
   39.7155   -1.9538   35.4639 H   0  0  0  0  0  0  0  0  0  0  0  0
   34.8380   -2.0649   36.6721 H   0  0  0  0  0  0  0  0  0  0  0  0
   35.8858   -1.2073   37.8149 H   0  0  0  0  0  0  0  0  0  0  0  0
   34.6053   -4.9501   37.2797 H   0  0  0  0  0  0  0  0  0  0  0  0
   34.8087   -4.8733   41.8462 C   0  0  0  0  0  0  0  0  0  0  0  0
   35.7708   -4.7896   42.3620 H   0  0  0  0  0  0  0  0  0  0  0  0
   34.4857   -5.9179   41.8959 H   0  0  0  0  0  0  0  0  0  0  0  0
   34.0839   -4.2557   42.3859 H   0  0  0  0  0  0  0  0  0  0  0  0
  1  2  1  0  0  0  0
  1  5  1  0  0  0  0
  2  3  2  0  0  0  0
  2 43  1  0  0  0  0
  3  4  1  0  0  0  0
  4  5  2  0  0  0  0
  4 42  1  0  0  0  0
  5  6  1  0  0  0  0
  6  7  1  0  0  0  0
  6 40  1  0  0  0  0
  6 41  1  0  0  0  0
  7  8  1  0  0  0  0
  8  9  1  0  0  0  0
  8 38  2  0  0  0  0
  9 10  1  0  0  0  0
  9 39  1  0  0  0  0
 10 11  2  0  0  0  0
 10 12  1  0  0  0  0
 12 13  2  0  0  0  0
 13 14  1  0  0  0  0
 13 38  1  0  0  0  0
 14 15  1  0  0  0  0
 15 16  1  0  0  0  0
 15 36  1  0  0  0  0
 15 37  1  0  0  0  0
 16 17  1  0  0  0  0
 16 21  2  0  0  0  0
 17 18  2  0  0  0  0
 17 35  1  0  0  0  0
 18 19  1  0  0  0  0
 18 34  1  0  0  0  0
 19 20  2  0  0  0  0
 19 24  1  0  0  0  0
 20 21  1  0  0  0  0
 20 23  1  0  0  0  0
 21 22  1  0  0  0  0
 24 25  1  0  0  0  0
 24 29  1  0  0  0  0
 24 33  1  0  0  0  0
 25 26  1  0  0  0  0
 25 27  1  0  0  0  0
 25 28  1  0  0  0  0
 29 30  1  0  0  0  0
 29 31  1  0  0  0  0
 29 32  1  0  0  0  0
 43 44  1  0  0  0  0
 43 45  1  0  0  0  0
 43 46  1  0  0  0  0
M  END
> <Gold.Goldscore.Fitness>
67.7756

> <Gold.Goldscore.External.HBond>
1.4847

> <Gold.Protein.ActiveResidues>
 GLU87   ILE88   VAL90   ASN91   ALA92   ASP94   ASN95   ARG98   ILE118  ASN120 
 LYS123  GLY124  ILE125  ILE141  PHE142  THR147  SER148  SER149  ASN150  TYR151 
 GLY160  GLY161  ARG162  ASN163  GLY164  TYR165  GLY166  ALA167  LYS168  LEU169 
 THR181  THR215  ILE217  ILE317  GLN376  LYS378  ILE33   TYR34   MG903  

> <Gold.Goldscore.Internal.HBond>
0.0

> <Gold.Goldscore.Internal.Torsion.Weighted>
-4.6232

> <Gold.Protein.RotatedTorsions>
[ 8833 2752 2751 2750 ] final  -92.65 input   60.00 | X-H torsion
[ 6906  969  968  965 ] final -179.89 input   59.99 | X-H torsion
[ 6910  975  974  971 ] final  -12.12 input   60.00 | X-H torsion
[ 6897  962  961  958 ] final   71.11 input   60.00 | X-H torsion
[ 9084 2997 2996 2994 ] final  -38.60 input   60.00 | X-H torsion
[ 7406 1497 1496 1493 ] final  170.76 input   60.00 | X-H torsion
[ 7140 1220 1219 1216 ] final  115.27 input   60.00 | X-H torsion
[ 6926  995  994  992 ] final   25.13 input   60.0

> <Gold.Goldscore.Constraint.Score>
0.0

> <Gold.Id.Protein>
1ZXM|1ZXM_protein|mol2

> <Gold.Protein.RotatedAtoms>
   40.6750    3.3830   41.8637 H   0  0  0  0  0  0  0  0  0  0  0  0  # atno 6897 bound_to 962 
   42.5663   -2.5035   38.2571 H   0  0  0  0  0  0  0  0  0  0  0  0  # atno 6906 bound_to 969 
   38.8111   -4.3840   40.0676 H   0  0  0  0  0  0  0  0  0  0  0  0  # atno 6910 bound_to 975 
   45.8911    1.1244   38.6740 H   0  0  0  0  0  0  0  0  0  0  0  0  # atno 6926 bound_to 995 
   28.0475    0.1168   43.0607 H   0  0  0  0  0  0  0  0  0  0  0  0  # atno 7140 bound_to 1220
   28.2838   -0.9017   41.0

> <Gold.Version>
5.3.0

> <Gold.Goldscore.Internal.Correction>
-0.0166

> <Gold.Goldscore.Internal.Vdw>
-1.3472

> <Gold.Goldscore.Internal.Vdw.Weighted>
-1.3472

> <Gold.Goldscore.External.HBond.Weighted>
1.4847

> <Gold.Goldscore.External.Vdw.Weighted>
72.2447

> <Gold.Goldscore.Internal.HBond.Weighted>
0.0

> <Gold.Goldscore.Hbonds>
donor molecule, donor type, donor heavy atom, donor atom, acceptor molecule, acceptor atom, score
      L1  H     1    27       P1   757  0.74

> <Gold.Goldscore.External.Vdw>
52.5416

> <Gold.Goldscore.Internal.Torsion>
-4.6232

> <Gold.Goldscore.Internal.Correction.Weighted>
-0.0166

> <Gold.Version>
5.3.0

> <Gold.Id.Protein>
1ZXM|1ZXM_protein|mol2

> <Gold.ASP.Fitness>
29.5990

> <Gold.ASP.ASP>
32.7340

> <Gold.ASP.Map>
-163.6700

> <Gold.ASP.DEClash>
2.3170

> <Gold.ASP.DEInternal>
0.8179

> <Gold.ASP.Internal.Correction>
0.1072

> <Gold.Protein.RotatedTorsions>
[ 8924 2752 2751 2750 ] final  -11.09 input   60.00 | X-H torsion
[ 6908  969  968  965 ] final -161.73 input   59.99 | X-H torsion
[ 6912  975  974  971 ] final  118.31 input   60.00 | X-H torsion
[ 6899  962  961  958 ] final  111.72 input   60.00 | X-H torsion
[ 9165 2997 2996 2994 ] final  159.37 input   60.00 | X-H torsion
[ 7410 1497 1496 1493 ] final  -13.07 input   60.00 | X-H torsion
[ 7137 1220 1219 1216 ] final  -68.81 input   60.00 | X-H torsion
[ 6928  995  994  992 ] final   30.64 input   60.00 | X-H torsion

> <Gold.Protein.ActiveResidues>
 GLU87   ILE88   VAL90   ASN91   ALA92   ASP94   ASN95   ARG98   ILE118  ASN120 
 LYS123  GLY124  ILE125  ILE141  PHE142  THR147  SER148  SER149  ASN150  TYR151 
 GLY160  GLY161  ARG162  ASN163  GLY164  TYR165  GLY166  ALA167  LYS168  LEU169 
 THR181  THR215  ILE217  ILE317  GLN376  LYS378  ILE33   TYR34   MG903  

> <Gold.Protein.RotatedAtoms>
   40.3614    3.6264   42.3781 H   0  0  0  0  0  0  0  0  0  0  0  0  # atno 6899 bound_to 962 
   42.7089   -2.6879   38.4386 H   0  0  0  0  0  0  0  0  0  0  0  0  # atno 6908 bound_to 969 
   37.8364   -5.7022   40.5176 H   0  0  0  0  0  0  0  0  0  0  0  0  # atno 6912 bound_to 975 
   45.8036    1.1274   38.6946 H   0  0  0  0  0  0  0  0  0  0  0  0  # atno 6928 bound_to 995 
   27.3595   -0.1896   44.7735 H   0  0  0  0  0  0  0  0  0  0  0  0  # atno 7137 bound_to 1220
   26.8480   -0.1912   42.0254 H   0  0  0  0  0  0  0  0  0  0  0  0  # atno 7410 bound_to 1497
   44.0668   -0.6694   29.4461 H   0  0  0  0  0  0  0  0  0  0  0  0  # atno 8924 bound_to 2752
   43.4637    0.7198   30.1197 H   0  0  0  0  0  0  0  0  0  0  0  0  # atno 8925 bound_to 2752
   43.4839   -0.6859   30.9975 H   0  0  0  0  0  0  0  0  0  0  0  0  # atno 8926 bound_to 2752
   34.2419   -5.0570   45.3789 H   0  0  0  0  0  0  0  0  0  0  0  0  # atno 9165 bound_to 2997
   41.1848   -2.1255   38.5334 LP  0  0  0  0  0  0  0  0  0  0  0  0  # atno 11896 bound_to 969 
   41.7532   -3.1482   39.6726 LP  0  0  0  0  0  0  0  0  0  0  0  0  # atno 11897 bound_to 969 
   38.8656   -4.5410   40.0271 LP  0  0  0  0  0  0  0  0  0  0  0  0  # atno 11898 bound_to 975 
   37.4804   -4.1382   40.7924 LP  0  0  0  0  0  0  0  0  0  0  0  0  # atno 11899 bound_to 975 
   41.7090    3.8713   41.4994 LP  0  0  0  0  0  0  0  0  0  0  0  0  # atno 11904 bound_to 962 
   41.3763    4.8349   42.7752 LP  0  0  0  0  0  0  0  0  0  0  0  0  # atno 11905 bound_to 962 
   34.6877   -4.6737   43.8615 LP  0  0  0  0  0  0  0  0  0  0  0  0  # atno 11912 bound_to 2997
   33.8569   -3.5988   44.7676 LP  0  0  0  0  0  0  0  0  0  0  0  0  # atno 11913 bound_to 2997
   28.3973   -0.1612   41.5288 LP  0  0  0  0  0  0  0  0  0  0  0  0  # atno 11922 bound_to 1497
   27.4039   -1.3624   41.0421 LP  0  0  0  0  0  0  0  0  0  0  0  0  # atno 11923 bound_to 1497
   28.5992    0.0214   43.7408 LP  0  0  0  0  0  0  0  0  0  0  0  0  # atno 11930 bound_to 1220
   27.0612    0.0585   43.1932 LP  0  0  0  0  0  0  0  0  0  0  0  0  # atno 11931 bound_to 1220

$$$$
****|SGG-4|sdf|1|dock83
  -GOLD-   9 72311513D 1   1.00000     0.00000

 46 48  0  0  0  0  0  0  0  0  1 V2000
   36.5916   -5.3893   37.4638 S   0  0  0  0  0  0  0  0  0  0  0  0
   36.0762   -6.4674   38.6981 C   0  0  0  0  0  0  0  0  0  0  0  0
   35.3479   -5.9295   39.6521 N   0  0  0  0  0  0  0  0  0  0  0  0
   35.1803   -4.5820   39.4032 C   0  0  0  0  0  0  0  0  0  0  0  0
   35.7816   -4.0995   38.2563 C   0  0  0  0  0  0  0  0  0  0  0  0
   35.8282   -2.7082   37.7120 C   0  0  0  0  0  0  0  0  0  0  0  0
   37.0259   -2.5776   36.3451 S   0  0  0  0  0  0  0  0  0  0  0  0
   37.9854   -1.2329   36.9463 C   0  0  0  0  0  0  0  0  0  0  0  0
   39.1788   -0.9223   36.3123 N   0  0  0  0  0  0  0  0  0  0  0  0
   39.9590    0.1285   36.7787 C   0  0  0  0  0  0  0  0  0  0  0  0
   41.1569    0.4558   36.1394 O   0  0  0  0  0  0  0  0  0  0  0  0
   39.5588    0.8190   37.8509 N   0  0  0  0  0  0  0  0  0  0  0  0
   38.4002    0.4532   38.4124 C   0  0  0  0  0  0  0  0  0  0  0  0
   37.9162    1.3357   39.8719 S   0  0  0  0  0  0  0  0  0  0  0  0
   36.4417    2.1137   39.1639 C   0  0  0  0  0  0  0  0  0  0  0  0
   35.2562    1.1826   39.1439 C   0  0  0  0  0  0  0  0  0  0  0  0
   34.8975    0.4507   40.2820 C   0  0  0  0  0  0  0  0  0  0  0  0
   33.7787   -0.3882   40.2658 C   0  0  0  0  0  0  0  0  0  0  0  0
   33.0025   -0.5280   39.1068 C   0  0  0  0  0  0  0  0  0  0  0  0
   33.3723    0.1980   37.9656 C   0  0  0  0  0  0  0  0  0  0  0  0
   34.4866    1.0405   37.9821 C   0  0  0  0  0  0  0  0  0  0  0  0
   34.7488    1.5896   37.0799 H   0  0  0  0  0  0  0  0  0  0  0  0
   32.7901    0.1173   37.0499 H   0  0  0  0  0  0  0  0  0  0  0  0
   31.7627   -1.4043   39.0636 C   0  0  0  0  0  0  0  0  0  0  0  0
   30.5257   -0.5644   38.7382 C   0  0  0  0  0  0  0  0  0  0  0  0
   30.3255    0.1801   39.5167 H   0  0  0  0  0  0  0  0  0  0  0  0
   30.6535   -0.0289   37.7906 H   0  0  0  0  0  0  0  0  0  0  0  0
   29.6394   -1.2009   38.6447 H   0  0  0  0  0  0  0  0  0  0  0  0
   31.5487   -2.2097   40.3481 C   0  0  0  0  0  0  0  0  0  0  0  0
   31.2412   -1.5759   41.1867 H   0  0  0  0  0  0  0  0  0  0  0  0
   32.4647   -2.7350   40.6393 H   0  0  0  0  0  0  0  0  0  0  0  0
   30.7639   -2.9599   40.2012 H   0  0  0  0  0  0  0  0  0  0  0  0
   31.8881   -2.1373   38.2552 H   0  0  0  0  0  0  0  0  0  0  0  0
   33.5187   -0.9247   41.1750 H   0  0  0  0  0  0  0  0  0  0  0  0
   35.4820    0.5336   41.1958 H   0  0  0  0  0  0  0  0  0  0  0  0
   36.6446    2.4444   38.1379 H   0  0  0  0  0  0  0  0  0  0  0  0
   36.2003    3.0145   39.7407 H   0  0  0  0  0  0  0  0  0  0  0  0
   37.5930   -0.5371   38.0135 N   0  0  0  0  0  0  0  0  0  0  0  0
   39.4725   -1.4647   35.5121 H   0  0  0  0  0  0  0  0  0  0  0  0
   34.8321   -2.4395   37.3408 H   0  0  0  0  0  0  0  0  0  0  0  0
   36.1002   -1.9914   38.4944 H   0  0  0  0  0  0  0  0  0  0  0  0
   34.6013   -3.9900   40.1024 H   0  0  0  0  0  0  0  0  0  0  0  0
   36.4716   -7.9009   38.6509 C   0  0  0  0  0  0  0  0  0  0  0  0
   36.1625   -8.3504   37.7016 H   0  0  0  0  0  0  0  0  0  0  0  0
   35.9883   -8.4540   39.4625 H   0  0  0  0  0  0  0  0  0  0  0  0
   37.5558   -8.0207   38.7415 H   0  0  0  0  0  0  0  0  0  0  0  0
  1  2  1  0  0  0  0
  1  5  1  0  0  0  0
  2  3  2  0  0  0  0
  2 43  1  0  0  0  0
  3  4  1  0  0  0  0
  4  5  2  0  0  0  0
  4 42  1  0  0  0  0
  5  6  1  0  0  0  0
  6  7  1  0  0  0  0
  6 40  1  0  0  0  0
  6 41  1  0  0  0  0
  7  8  1  0  0  0  0
  8  9  1  0  0  0  0
  8 38  2  0  0  0  0
  9 10  1  0  0  0  0
  9 39  1  0  0  0  0
 10 11  2  0  0  0  0
 10 12  1  0  0  0  0
 12 13  2  0  0  0  0
 13 14  1  0  0  0  0
 13 38  1  0  0  0  0
 14 15  1  0  0  0  0
 15 16  1  0  0  0  0
 15 36  1  0  0  0  0
 15 37  1  0  0  0  0
 16 17  1  0  0  0  0
 16 21  2  0  0  0  0
 17 18  2  0  0  0  0
 17 35  1  0  0  0  0
 18 19  1  0  0  0  0
 18 34  1  0  0  0  0
 19 20  2  0  0  0  0
 19 24  1  0  0  0  0
 20 21  1  0  0  0  0
 20 23  1  0  0  0  0
 21 22  1  0  0  0  0
 24 25  1  0  0  0  0
 24 29  1  0  0  0  0
 24 33  1  0  0  0  0
 25 26  1  0  0  0  0
 25 27  1  0  0  0  0
 25 28  1  0  0  0  0
 29 30  1  0  0  0  0
 29 31  1  0  0  0  0
 29 32  1  0  0  0  0
 43 44  1  0  0  0  0
 43 45  1  0  0  0  0
 43 46  1  0  0  0  0
M  END
> <Gold.Goldscore.Fitness>
67.7756

> <Gold.Goldscore.External.HBond>
1.4847

> <Gold.Protein.ActiveResidues>
 GLU87   ILE88   VAL90   ASN91   ALA92   ASP94   ASN95   ARG98   ILE118  ASN120 
 LYS123  GLY124  ILE125  ILE141  PHE142  THR147  SER148  SER149  ASN150  TYR151 
 GLY160  GLY161  ARG162  ASN163  GLY164  TYR165  GLY166  ALA167  LYS168  LEU169 
 THR181  THR215  ILE217  ILE317  GLN376  LYS378  ILE33   TYR34   MG903  

> <Gold.Goldscore.Internal.HBond>
0.0

> <Gold.Goldscore.Internal.Torsion.Weighted>
-4.6232

> <Gold.Protein.RotatedTorsions>
[ 8833 2752 2751 2750 ] final  -92.65 input   60.00 | X-H torsion
[ 6906  969  968  965 ] final -179.89 input   59.99 | X-H torsion
[ 6910  975  974  971 ] final  -12.12 input   60.00 | X-H torsion
[ 6897  962  961  958 ] final   71.11 input   60.00 | X-H torsion
[ 9084 2997 2996 2994 ] final  -38.60 input   60.00 | X-H torsion
[ 7406 1497 1496 1493 ] final  170.76 input   60.00 | X-H torsion
[ 7140 1220 1219 1216 ] final  115.27 input   60.00 | X-H torsion
[ 6926  995  994  992 ] final   25.13 input   60.0

> <Gold.Goldscore.Constraint.Score>
0.0

> <Gold.Id.Protein>
1ZXM|1ZXM_protein|mol2

> <Gold.Protein.RotatedAtoms>
   40.6750    3.3830   41.8637 H   0  0  0  0  0  0  0  0  0  0  0  0  # atno 6897 bound_to 962 
   42.5663   -2.5035   38.2571 H   0  0  0  0  0  0  0  0  0  0  0  0  # atno 6906 bound_to 969 
   38.8111   -4.3840   40.0676 H   0  0  0  0  0  0  0  0  0  0  0  0  # atno 6910 bound_to 975 
   45.8911    1.1244   38.6740 H   0  0  0  0  0  0  0  0  0  0  0  0  # atno 6926 bound_to 995 
   28.0475    0.1168   43.0607 H   0  0  0  0  0  0  0  0  0  0  0  0  # atno 7140 bound_to 1220
   28.2838   -0.9017   41.0

> <Gold.Version>
5.3.0

> <Gold.Goldscore.Internal.Correction>
-0.0166

> <Gold.Goldscore.Internal.Vdw>
-1.3472

> <Gold.Goldscore.Internal.Vdw.Weighted>
-1.3472

> <Gold.Goldscore.External.HBond.Weighted>
1.4847

> <Gold.Goldscore.External.Vdw.Weighted>
72.2447

> <Gold.Goldscore.Internal.HBond.Weighted>
0.0

> <Gold.Goldscore.Hbonds>
donor molecule, donor type, donor heavy atom, donor atom, acceptor molecule, acceptor atom, score
      L1  H     1    27       P1   757  0.74

> <Gold.Goldscore.External.Vdw>
52.5416

> <Gold.Goldscore.Internal.Torsion>
-4.6232

> <Gold.Goldscore.Internal.Correction.Weighted>
-0.0166

> <Gold.Version>
5.3.0

> <Gold.Id.Protein>
1ZXM|1ZXM_protein|mol2

> <Gold.ASP.Fitness>
29.5515

> <Gold.ASP.ASP>
32.7220

> <Gold.ASP.Map>
-163.6100

> <Gold.ASP.DEClash>
2.4274

> <Gold.ASP.DEInternal>
0.7431

> <Gold.ASP.Internal.Correction>
0.1091

> <Gold.Protein.RotatedTorsions>
[ 8924 2752 2751 2750 ] final -115.07 input   60.00 | X-H torsion
[ 6908  969  968  965 ] final   29.38 input   59.99 | X-H torsion
[ 6912  975  974  971 ] final  -21.74 input   60.00 | X-H torsion
[ 6899  962  961  958 ] final -172.07 input   60.00 | X-H torsion
[ 9165 2997 2996 2994 ] final  111.89 input   60.00 | X-H torsion
[ 7410 1497 1496 1493 ] final -151.74 input   60.00 | X-H torsion
[ 7137 1220 1219 1216 ] final    6.28 input   60.00 | X-H torsion
[ 6928  995  994  992 ] final  163.94 input   60.00 | X-H torsion

> <Gold.Protein.ActiveResidues>
 GLU87   ILE88   VAL90   ASN91   ALA92   ASP94   ASN95   ARG98   ILE118  ASN120 
 LYS123  GLY124  ILE125  ILE141  PHE142  THR147  SER148  SER149  ASN150  TYR151 
 GLY160  GLY161  ARG162  ASN163  GLY164  TYR165  GLY166  ALA167  LYS168  LEU169 
 THR181  THR215  ILE217  ILE317  GLN376  LYS378  ILE33   TYR34   MG903  

> <Gold.Protein.RotatedAtoms>
   40.7751    4.5302   42.9671 H   0  0  0  0  0  0  0  0  0  0  0  0  # atno 6899 bound_to 962 
   41.0132   -2.5053   39.1899 H   0  0  0  0  0  0  0  0  0  0  0  0  # atno 6908 bound_to 969 
   38.7431   -4.2495   40.1116 H   0  0  0  0  0  0  0  0  0  0  0  0  # atno 6912 bound_to 975 
   45.5852    1.5654   40.3426 H   0  0  0  0  0  0  0  0  0  0  0  0  # atno 6928 bound_to 995 
   26.7400   -0.0546   43.8249 H   0  0  0  0  0  0  0  0  0  0  0  0  # atno 7137 bound_to 1220
   28.4491   -0.3994   41.3459 H   0  0  0  0  0  0  0  0  0  0  0  0  # atno 7410 bound_to 1497
   43.5872   -0.8888   30.8589 H   0  0  0  0  0  0  0  0  0  0  0  0  # atno 8924 bound_to 2752
   44.0482   -0.4277   29.3350 H   0  0  0  0  0  0  0  0  0  0  0  0  # atno 8925 bound_to 2752
   43.3790    0.6810   30.3695 H   0  0  0  0  0  0  0  0  0  0  0  0  # atno 8926 bound_to 2752
   34.6000   -5.3125   44.7667 H   0  0  0  0  0  0  0  0  0  0  0  0  # atno 9165 bound_to 2997
   42.4631   -3.2247   39.3580 LP  0  0  0  0  0  0  0  0  0  0  0  0  # atno 11896 bound_to 969 
   42.1824   -2.2330   38.0914 LP  0  0  0  0  0  0  0  0  0  0  0  0  # atno 11897 bound_to 969 
   37.3112   -4.4093   40.8682 LP  0  0  0  0  0  0  0  0  0  0  0  0  # atno 11898 bound_to 975 
   38.1218   -5.7328   40.3603 LP  0  0  0  0  0  0  0  0  0  0  0  0  # atno 11899 bound_to 975 
   40.7079    3.3745   41.8235 LP  0  0  0  0  0  0  0  0  0  0  0  0  # atno 11904 bound_to 962 
   41.9607    4.4214   41.8579 LP  0  0  0  0  0  0  0  0  0  0  0  0  # atno 11905 bound_to 962 
   34.3866   -3.9768   43.8619 LP  0  0  0  0  0  0  0  0  0  0  0  0  # atno 11912 bound_to 2997
   33.7973   -4.0384   45.3836 LP  0  0  0  0  0  0  0  0  0  0  0  0  # atno 11913 bound_to 2997
   27.1244   -1.3261   41.1607 LP  0  0  0  0  0  0  0  0  0  0  0  0  # atno 11922 bound_to 1497
   27.0642    0.0121   42.0946 LP  0  0  0  0  0  0  0  0  0  0  0  0  # atno 11923 bound_to 1497
   28.0761   -0.1627   44.7473 LP  0  0  0  0  0  0  0  0  0  0  0  0  # atno 11930 bound_to 1220
   28.2083    0.1067   43.1422 LP  0  0  0  0  0  0  0  0  0  0  0  0  # atno 11931 bound_to 1220

$$$$
****|SGG-4|sdf|1|dock33
  -GOLD-   9 72311463D 1   1.00000     0.00000

 46 48  0  0  0  0  0  0  0  0  1 V2000
   36.3802   -8.8275   38.2586 S   0  0  0  0  0  0  0  0  0  0  0  0
   36.0355   -9.3753   39.8499 C   0  0  0  0  0  0  0  0  0  0  0  0
   36.0004   -8.4414   40.7753 N   0  0  0  0  0  0  0  0  0  0  0  0
   36.2607   -7.2123   40.2032 C   0  0  0  0  0  0  0  0  0  0  0  0
   36.4913   -7.2161   38.8406 C   0  0  0  0  0  0  0  0  0  0  0  0
   36.8311   -6.0858   37.9236 C   0  0  0  0  0  0  0  0  0  0  0  0
   35.4442   -4.9121   37.7861 S   0  0  0  0  0  0  0  0  0  0  0  0
   36.3426   -3.4067   37.9163 C   0  0  0  0  0  0  0  0  0  0  0  0
   36.9617   -2.8936   36.7867 N   0  0  0  0  0  0  0  0  0  0  0  0
   37.6875   -1.7117   36.8698 C   0  0  0  0  0  0  0  0  0  0  0  0
   38.3049   -1.1815   35.7347 O   0  0  0  0  0  0  0  0  0  0  0  0
   37.7984   -1.0899   38.0478 N   0  0  0  0  0  0  0  0  0  0  0  0
   37.1797   -1.6520   39.0931 C   0  0  0  0  0  0  0  0  0  0  0  0
   37.3910   -0.8509   40.6604 S   0  0  0  0  0  0  0  0  0  0  0  0
   36.5507    0.6919   40.2193 C   0  0  0  0  0  0  0  0  0  0  0  0
   35.1432    0.4586   39.7320 C   0  0  0  0  0  0  0  0  0  0  0  0
   34.2656   -0.3712   40.4397 C   0  0  0  0  0  0  0  0  0  0  0  0
   32.9519   -0.5593   39.9987 C   0  0  0  0  0  0  0  0  0  0  0  0
   32.4900    0.0641   38.8309 C   0  0  0  0  0  0  0  0  0  0  0  0
   33.3760    0.8851   38.1188 C   0  0  0  0  0  0  0  0  0  0  0  0
   34.6870    1.0781   38.5614 C   0  0  0  0  0  0  0  0  0  0  0  0
   35.3512    1.7201   37.9860 H   0  0  0  0  0  0  0  0  0  0  0  0
   33.0503    1.3884   37.2108 H   0  0  0  0  0  0  0  0  0  0  0  0
   31.0608   -0.0916   38.3412 C   0  0  0  0  0  0  0  0  0  0  0  0
   30.7445   -1.5649   38.0750 C   0  0  0  0  0  0  0  0  0  0  0  0
   31.3698   -1.9750   37.2743 H   0  0  0  0  0  0  0  0  0  0  0  0
   30.9134   -2.1705   38.9725 H   0  0  0  0  0  0  0  0  0  0  0  0
   29.6967   -1.6888   37.7813 H   0  0  0  0  0  0  0  0  0  0  0  0
   30.7499    0.7611   37.1081 C   0  0  0  0  0  0  0  0  0  0  0  0
   31.2466    0.3828   36.2082 H   0  0  0  0  0  0  0  0  0  0  0  0
   31.0667    1.7989   37.2583 H   0  0  0  0  0  0  0  0  0  0  0  0
   29.6725    0.7647   36.9089 H   0  0  0  0  0  0  0  0  0  0  0  0
   30.3858    0.2545   39.1357 H   0  0  0  0  0  0  0  0  0  0  0  0
   32.2928   -1.1941   40.5857 H   0  0  0  0  0  0  0  0  0  0  0  0
   34.5948   -0.8730   41.3471 H   0  0  0  0  0  0  0  0  0  0  0  0
   37.1104    1.2162   39.4350 H   0  0  0  0  0  0  0  0  0  0  0  0
   36.5393    1.3556   41.0921 H   0  0  0  0  0  0  0  0  0  0  0  0
   36.4566   -2.7783   39.0864 N   0  0  0  0  0  0  0  0  0  0  0  0
   36.8792   -3.3852   35.9079 H   0  0  0  0  0  0  0  0  0  0  0  0
   37.7069   -5.5588   38.3203 H   0  0  0  0  0  0  0  0  0  0  0  0
   37.0854   -6.4561   36.9245 H   0  0  0  0  0  0  0  0  0  0  0  0
   36.2703   -6.3330   40.8368 H   0  0  0  0  0  0  0  0  0  0  0  0
   35.8174  -10.8238   40.1106 C   0  0  0  0  0  0  0  0  0  0  0  0
   35.0155  -11.2094   39.4725 H   0  0  0  0  0  0  0  0  0  0  0  0
   35.5272  -10.9814   41.1542 H   0  0  0  0  0  0  0  0  0  0  0  0
   36.7199  -11.4082   39.9051 H   0  0  0  0  0  0  0  0  0  0  0  0
  1  2  1  0  0  0  0
  1  5  1  0  0  0  0
  2  3  2  0  0  0  0
  2 43  1  0  0  0  0
  3  4  1  0  0  0  0
  4  5  2  0  0  0  0
  4 42  1  0  0  0  0
  5  6  1  0  0  0  0
  6  7  1  0  0  0  0
  6 40  1  0  0  0  0
  6 41  1  0  0  0  0
  7  8  1  0  0  0  0
  8  9  1  0  0  0  0
  8 38  2  0  0  0  0
  9 10  1  0  0  0  0
  9 39  1  0  0  0  0
 10 11  2  0  0  0  0
 10 12  1  0  0  0  0
 12 13  2  0  0  0  0
 13 14  1  0  0  0  0
 13 38  1  0  0  0  0
 14 15  1  0  0  0  0
 15 16  1  0  0  0  0
 15 36  1  0  0  0  0
 15 37  1  0  0  0  0
 16 17  1  0  0  0  0
 16 21  2  0  0  0  0
 17 18  2  0  0  0  0
 17 35  1  0  0  0  0
 18 19  1  0  0  0  0
 18 34  1  0  0  0  0
 19 20  2  0  0  0  0
 19 24  1  0  0  0  0
 20 21  1  0  0  0  0
 20 23  1  0  0  0  0
 21 22  1  0  0  0  0
 24 25  1  0  0  0  0
 24 29  1  0  0  0  0
 24 33  1  0  0  0  0
 25 26  1  0  0  0  0
 25 27  1  0  0  0  0
 25 28  1  0  0  0  0
 29 30  1  0  0  0  0
 29 31  1  0  0  0  0
 29 32  1  0  0  0  0
 43 44  1  0  0  0  0
 43 45  1  0  0  0  0
 43 46  1  0  0  0  0
M  END
> <Gold.Goldscore.Fitness>
67.7756

> <Gold.Goldscore.External.HBond>
1.4847

> <Gold.Protein.ActiveResidues>
 GLU87   ILE88   VAL90   ASN91   ALA92   ASP94   ASN95   ARG98   ILE118  ASN120 
 LYS123  GLY124  ILE125  ILE141  PHE142  THR147  SER148  SER149  ASN150  TYR151 
 GLY160  GLY161  ARG162  ASN163  GLY164  TYR165  GLY166  ALA167  LYS168  LEU169 
 THR181  THR215  ILE217  ILE317  GLN376  LYS378  ILE33   TYR34   MG903  

> <Gold.Goldscore.Internal.HBond>
0.0

> <Gold.Goldscore.Internal.Torsion.Weighted>
-4.6232

> <Gold.Protein.RotatedTorsions>
[ 8833 2752 2751 2750 ] final  -92.65 input   60.00 | X-H torsion
[ 6906  969  968  965 ] final -179.89 input   59.99 | X-H torsion
[ 6910  975  974  971 ] final  -12.12 input   60.00 | X-H torsion
[ 6897  962  961  958 ] final   71.11 input   60.00 | X-H torsion
[ 9084 2997 2996 2994 ] final  -38.60 input   60.00 | X-H torsion
[ 7406 1497 1496 1493 ] final  170.76 input   60.00 | X-H torsion
[ 7140 1220 1219 1216 ] final  115.27 input   60.00 | X-H torsion
[ 6926  995  994  992 ] final   25.13 input   60.0

> <Gold.Goldscore.Constraint.Score>
0.0

> <Gold.Id.Protein>
1ZXM|1ZXM_protein|mol2

> <Gold.Protein.RotatedAtoms>
   40.6750    3.3830   41.8637 H   0  0  0  0  0  0  0  0  0  0  0  0  # atno 6897 bound_to 962 
   42.5663   -2.5035   38.2571 H   0  0  0  0  0  0  0  0  0  0  0  0  # atno 6906 bound_to 969 
   38.8111   -4.3840   40.0676 H   0  0  0  0  0  0  0  0  0  0  0  0  # atno 6910 bound_to 975 
   45.8911    1.1244   38.6740 H   0  0  0  0  0  0  0  0  0  0  0  0  # atno 6926 bound_to 995 
   28.0475    0.1168   43.0607 H   0  0  0  0  0  0  0  0  0  0  0  0  # atno 7140 bound_to 1220
   28.2838   -0.9017   41.0

> <Gold.Version>
5.3.0

> <Gold.Goldscore.Internal.Correction>
-0.0166

> <Gold.Goldscore.Internal.Vdw>
-1.3472

> <Gold.Goldscore.Internal.Vdw.Weighted>
-1.3472

> <Gold.Goldscore.External.HBond.Weighted>
1.4847

> <Gold.Goldscore.External.Vdw.Weighted>
72.2447

> <Gold.Goldscore.Internal.HBond.Weighted>
0.0

> <Gold.Goldscore.Hbonds>
donor molecule, donor type, donor heavy atom, donor atom, acceptor molecule, acceptor atom, score
      L1  H     1    27       P1   757  0.74

> <Gold.Goldscore.External.Vdw>
52.5416

> <Gold.Goldscore.Internal.Torsion>
-4.6232

> <Gold.Goldscore.Internal.Correction.Weighted>
-0.0166

> <Gold.Version>
5.3.0

> <Gold.Id.Protein>
1ZXM|1ZXM_protein|mol2

> <Gold.ASP.Fitness>
29.2160

> <Gold.ASP.ASP>
30.3760

> <Gold.ASP.Map>
-151.8800

> <Gold.ASP.DEClash>
0.4305

> <Gold.ASP.DEInternal>
0.7296

> <Gold.ASP.Internal.Correction>
0.1091

> <Gold.Protein.RotatedTorsions>
[ 8924 2752 2751 2750 ] final  112.78 input   60.00 | X-H torsion
[ 6908  969  968  965 ] final  148.96 input   59.99 | X-H torsion
[ 6912  975  974  971 ] final -135.18 input   60.00 | X-H torsion
[ 6899  962  961  958 ] final    9.68 input   60.00 | X-H torsion
[ 9165 2997 2996 2994 ] final -122.61 input   60.00 | X-H torsion
[ 7410 1497 1496 1493 ] final  138.53 input   60.00 | X-H torsion
[ 7137 1220 1219 1216 ] final   96.87 input   60.00 | X-H torsion
[ 6928  995  994  992 ] final -170.82 input   60.00 | X-H torsion

> <Gold.Protein.ActiveResidues>
 GLU87   ILE88   VAL90   ASN91   ALA92   ASP94   ASN95   ARG98   ILE118  ASN120 
 LYS123  GLY124  ILE125  ILE141  PHE142  THR147  SER148  SER149  ASN150  TYR151 
 GLY160  GLY161  ARG162  ASN163  GLY164  TYR165  GLY166  ALA167  LYS168  LEU169 
 THR181  THR215  ILE217  ILE317  GLN376  LYS378  ILE33   TYR34   MG903  

> <Gold.Protein.RotatedAtoms>
   41.4983    3.6691   41.4704 H   0  0  0  0  0  0  0  0  0  0  0  0  # atno 6899 bound_to 962 
   42.1750   -2.2311   38.0975 H   0  0  0  0  0  0  0  0  0  0  0  0  # atno 6908 bound_to 969 
   37.3634   -4.3172   40.8479 H   0  0  0  0  0  0  0  0  0  0  0  0  # atno 6912 bound_to 975 
   45.9742    1.6087   40.4621 H   0  0  0  0  0  0  0  0  0  0  0  0  # atno 6928 bound_to 995 
   27.7578    0.1192   42.9855 H   0  0  0  0  0  0  0  0  0  0  0  0  # atno 7137 bound_to 1220
   27.8924   -1.2304   40.9653 H   0  0  0  0  0  0  0  0  0  0  0  0  # atno 7410 bound_to 1497
   43.4416    0.7171   30.1803 H   0  0  0  0  0  0  0  0  0  0  0  0  # atno 8924 bound_to 2752
   43.5077   -0.7390   30.9695 H   0  0  0  0  0  0  0  0  0  0  0  0  # atno 8925 bound_to 2752
   44.0651   -0.6135   29.4136 H   0  0  0  0  0  0  0  0  0  0  0  0  # atno 8926 bound_to 2752
   33.7930   -3.9684   45.3265 H   0  0  0  0  0  0  0  0  0  0  0  0  # atno 9165 bound_to 2997
   41.0075   -2.5103   39.1962 LP  0  0  0  0  0  0  0  0  0  0  0  0  # atno 11896 bound_to 969 
   42.4681   -3.2235   39.3534 LP  0  0  0  0  0  0  0  0  0  0  0  0  # atno 11897 bound_to 969 
   38.0267   -5.7375   40.4110 LP  0  0  0  0  0  0  0  0  0  0  0  0  # atno 11898 bound_to 975 
   38.7958   -4.3365   40.0759 LP  0  0  0  0  0  0  0  0  0  0  0  0  # atno 11899 bound_to 975 
   41.6063    4.8435   42.5916 LP  0  0  0  0  0  0  0  0  0  0  0  0  # atno 11904 bound_to 962 
   40.3341    3.8197   42.5973 LP  0  0  0  0  0  0  0  0  0  0  0  0  # atno 11905 bound_to 962 
   34.5661   -5.3188   44.8503 LP  0  0  0  0  0  0  0  0  0  0  0  0  # atno 11912 bound_to 2997
   34.4305   -4.0499   43.8315 LP  0  0  0  0  0  0  0  0  0  0  0  0  # atno 11913 bound_to 2997
   26.6475   -0.6098   41.8098 LP  0  0  0  0  0  0  0  0  0  0  0  0  # atno 11922 bound_to 1497
   28.1018    0.1329   41.8287 LP  0  0  0  0  0  0  0  0  0  0  0  0  # atno 11923 bound_to 1497
   26.8170   -0.1309   44.2895 LP  0  0  0  0  0  0  0  0  0  0  0  0  # atno 11930 bound_to 1220
   28.4423   -0.1002   44.4454 LP  0  0  0  0  0  0  0  0  0  0  0  0  # atno 11931 bound_to 1220

$$$$
****|SGG-4|sdf|1|dock89
  -GOLD-   9 72311513D 1   1.00000     0.00000

 46 48  0  0  0  0  0  0  0  0  1 V2000
   36.4417    0.1608   39.2148 S   0  0  0  0  0  0  0  0  0  0  0  0
   36.7297    1.8420   39.0099 C   0  0  0  0  0  0  0  0  0  0  0  0
   37.6469    2.1553   38.1208 N   0  0  0  0  0  0  0  0  0  0  0  0
   38.1612    1.0034   37.5602 C   0  0  0  0  0  0  0  0  0  0  0  0
   37.6301   -0.1848   38.0248 C   0  0  0  0  0  0  0  0  0  0  0  0
   37.9752   -1.5938   37.6648 C   0  0  0  0  0  0  0  0  0  0  0  0
   36.6764   -2.3442   36.6304 S   0  0  0  0  0  0  0  0  0  0  0  0
   35.8637   -3.3026   37.8597 C   0  0  0  0  0  0  0  0  0  0  0  0
   35.7470   -4.6720   37.6760 N   0  0  0  0  0  0  0  0  0  0  0  0
   35.0974   -5.4468   38.6290 C   0  0  0  0  0  0  0  0  0  0  0  0
   34.9851   -6.8284   38.4578 O   0  0  0  0  0  0  0  0  0  0  0  0
   34.5719   -4.8582   39.7078 N   0  0  0  0  0  0  0  0  0  0  0  0
   34.7183   -3.5316   39.8091 C   0  0  0  0  0  0  0  0  0  0  0  0
   33.9592   -2.7578   41.2119 S   0  0  0  0  0  0  0  0  0  0  0  0
   32.2531   -2.8753   40.6150 C   0  0  0  0  0  0  0  0  0  0  0  0
   31.9495   -1.8586   39.5441 C   0  0  0  0  0  0  0  0  0  0  0  0
   30.9299   -2.0801   38.6108 C   0  0  0  0  0  0  0  0  0  0  0  0
   30.6333   -1.1194   37.6387 C   0  0  0  0  0  0  0  0  0  0  0  0
   31.3599    0.0774   37.5663 C   0  0  0  0  0  0  0  0  0  0  0  0
   32.3880    0.2899   38.4959 C   0  0  0  0  0  0  0  0  0  0  0  0
   32.6817   -0.6666   39.4708 C   0  0  0  0  0  0  0  0  0  0  0  0
   33.4865   -0.4731   40.1773 H   0  0  0  0  0  0  0  0  0  0  0  0
   32.9694    1.2093   38.4722 H   0  0  0  0  0  0  0  0  0  0  0  0
   31.0433    1.1562   36.5452 C   0  0  0  0  0  0  0  0  0  0  0  0
   31.7909    2.4479   36.8831 C   0  0  0  0  0  0  0  0  0  0  0  0
   31.4717    2.8604   37.8466 H   0  0  0  0  0  0  0  0  0  0  0  0
   32.8714    2.2727   36.9377 H   0  0  0  0  0  0  0  0  0  0  0  0
   31.6148    3.2090   36.1156 H   0  0  0  0  0  0  0  0  0  0  0  0
   29.5430    1.4217   36.3942 C   0  0  0  0  0  0  0  0  0  0  0  0
   29.1236    1.9311   37.2684 H   0  0  0  0  0  0  0  0  0  0  0  0
   28.9913    0.4864   36.2508 H   0  0  0  0  0  0  0  0  0  0  0  0
   29.3545    2.0594   35.5235 H   0  0  0  0  0  0  0  0  0  0  0  0
   31.3982    0.8145   35.5634 H   0  0  0  0  0  0  0  0  0  0  0  0
   29.8208   -1.3173   36.9439 H   0  0  0  0  0  0  0  0  0  0  0  0
   30.3507   -3.0006   38.6373 H   0  0  0  0  0  0  0  0  0  0  0  0
   31.5513   -2.7294   41.4454 H   0  0  0  0  0  0  0  0  0  0  0  0
   32.0770   -3.8872   40.2311 H   0  0  0  0  0  0  0  0  0  0  0  0
   35.3386   -2.7245   38.9400 N   0  0  0  0  0  0  0  0  0  0  0  0
   36.1376   -5.0975   36.8470 H   0  0  0  0  0  0  0  0  0  0  0  0
   38.9202   -1.5961   37.1089 H   0  0  0  0  0  0  0  0  0  0  0  0
   38.1123   -2.2044   38.5639 H   0  0  0  0  0  0  0  0  0  0  0  0
   38.9341    1.0902   36.8054 H   0  0  0  0  0  0  0  0  0  0  0  0
   35.9759    2.8337   39.8235 C   0  0  0  0  0  0  0  0  0  0  0  0
   34.8979    2.6892   39.6979 H   0  0  0  0  0  0  0  0  0  0  0  0
   36.2222    3.8512   39.5040 H   0  0  0  0  0  0  0  0  0  0  0  0
   36.2057    2.7352   40.8892 H   0  0  0  0  0  0  0  0  0  0  0  0
  1  2  1  0  0  0  0
  1  5  1  0  0  0  0
  2  3  2  0  0  0  0
  2 43  1  0  0  0  0
  3  4  1  0  0  0  0
  4  5  2  0  0  0  0
  4 42  1  0  0  0  0
  5  6  1  0  0  0  0
  6  7  1  0  0  0  0
  6 40  1  0  0  0  0
  6 41  1  0  0  0  0
  7  8  1  0  0  0  0
  8  9  1  0  0  0  0
  8 38  2  0  0  0  0
  9 10  1  0  0  0  0
  9 39  1  0  0  0  0
 10 11  2  0  0  0  0
 10 12  1  0  0  0  0
 12 13  2  0  0  0  0
 13 14  1  0  0  0  0
 13 38  1  0  0  0  0
 14 15  1  0  0  0  0
 15 16  1  0  0  0  0
 15 36  1  0  0  0  0
 15 37  1  0  0  0  0
 16 17  1  0  0  0  0
 16 21  2  0  0  0  0
 17 18  2  0  0  0  0
 17 35  1  0  0  0  0
 18 19  1  0  0  0  0
 18 34  1  0  0  0  0
 19 20  2  0  0  0  0
 19 24  1  0  0  0  0
 20 21  1  0  0  0  0
 20 23  1  0  0  0  0
 21 22  1  0  0  0  0
 24 25  1  0  0  0  0
 24 29  1  0  0  0  0
 24 33  1  0  0  0  0
 25 26  1  0  0  0  0
 25 27  1  0  0  0  0
 25 28  1  0  0  0  0
 29 30  1  0  0  0  0
 29 31  1  0  0  0  0
 29 32  1  0  0  0  0
 43 44  1  0  0  0  0
 43 45  1  0  0  0  0
 43 46  1  0  0  0  0
M  END
> <Gold.Goldscore.Fitness>
67.7756

> <Gold.Goldscore.External.HBond>
1.4847

> <Gold.Protein.ActiveResidues>
 GLU87   ILE88   VAL90   ASN91   ALA92   ASP94   ASN95   ARG98   ILE118  ASN120 
 LYS123  GLY124  ILE125  ILE141  PHE142  THR147  SER148  SER149  ASN150  TYR151 
 GLY160  GLY161  ARG162  ASN163  GLY164  TYR165  GLY166  ALA167  LYS168  LEU169 
 THR181  THR215  ILE217  ILE317  GLN376  LYS378  ILE33   TYR34   MG903  

> <Gold.Goldscore.Internal.HBond>
0.0

> <Gold.Goldscore.Internal.Torsion.Weighted>
-4.6232

> <Gold.Protein.RotatedTorsions>
[ 8833 2752 2751 2750 ] final  -92.65 input   60.00 | X-H torsion
[ 6906  969  968  965 ] final -179.89 input   59.99 | X-H torsion
[ 6910  975  974  971 ] final  -12.12 input   60.00 | X-H torsion
[ 6897  962  961  958 ] final   71.11 input   60.00 | X-H torsion
[ 9084 2997 2996 2994 ] final  -38.60 input   60.00 | X-H torsion
[ 7406 1497 1496 1493 ] final  170.76 input   60.00 | X-H torsion
[ 7140 1220 1219 1216 ] final  115.27 input   60.00 | X-H torsion
[ 6926  995  994  992 ] final   25.13 input   60.0

> <Gold.Goldscore.Constraint.Score>
0.0

> <Gold.Id.Protein>
1ZXM|1ZXM_protein|mol2

> <Gold.Protein.RotatedAtoms>
   40.6750    3.3830   41.8637 H   0  0  0  0  0  0  0  0  0  0  0  0  # atno 6897 bound_to 962 
   42.5663   -2.5035   38.2571 H   0  0  0  0  0  0  0  0  0  0  0  0  # atno 6906 bound_to 969 
   38.8111   -4.3840   40.0676 H   0  0  0  0  0  0  0  0  0  0  0  0  # atno 6910 bound_to 975 
   45.8911    1.1244   38.6740 H   0  0  0  0  0  0  0  0  0  0  0  0  # atno 6926 bound_to 995 
   28.0475    0.1168   43.0607 H   0  0  0  0  0  0  0  0  0  0  0  0  # atno 7140 bound_to 1220
   28.2838   -0.9017   41.0

> <Gold.Version>
5.3.0

> <Gold.Goldscore.Internal.Correction>
-0.0166

> <Gold.Goldscore.Internal.Vdw>
-1.3472

> <Gold.Goldscore.Internal.Vdw.Weighted>
-1.3472

> <Gold.Goldscore.External.HBond.Weighted>
1.4847

> <Gold.Goldscore.External.Vdw.Weighted>
72.2447

> <Gold.Goldscore.Internal.HBond.Weighted>
0.0

> <Gold.Goldscore.Hbonds>
donor molecule, donor type, donor heavy atom, donor atom, acceptor molecule, acceptor atom, score
      L1  H     1    27       P1   757  0.74

> <Gold.Goldscore.External.Vdw>
52.5416

> <Gold.Goldscore.Internal.Torsion>
-4.6232

> <Gold.Goldscore.Internal.Correction.Weighted>
-0.0166

> <Gold.Version>
5.3.0

> <Gold.Id.Protein>
1ZXM|1ZXM_protein|mol2

> <Gold.ASP.Fitness>
29.1969

> <Gold.ASP.ASP>
31.8480

> <Gold.ASP.Map>
-159.2400

> <Gold.ASP.DEClash>
1.3784

> <Gold.ASP.DEInternal>
1.2726

> <Gold.ASP.Internal.Correction>
0.1091

> <Gold.Protein.RotatedTorsions>
[ 8924 2752 2751 2750 ] final   -8.21 input   60.00 | X-H torsion
[ 6908  969  968  965 ] final   93.65 input   59.99 | X-H torsion
[ 6912  975  974  971 ] final  123.48 input   60.00 | X-H torsion
[ 6899  962  961  958 ] final    3.75 input   60.00 | X-H torsion
[ 9165 2997 2996 2994 ] final  -91.14 input   60.00 | X-H torsion
[ 7410 1497 1496 1493 ] final  -75.02 input   60.00 | X-H torsion
[ 7137 1220 1219 1216 ] final   85.37 input   60.00 | X-H torsion
[ 6928  995  994  992 ] final -166.79 input   60.00 | X-H torsion

> <Gold.Protein.ActiveResidues>
 GLU87   ILE88   VAL90   ASN91   ALA92   ASP94   ASN95   ARG98   ILE118  ASN120 
 LYS123  GLY124  ILE125  ILE141  PHE142  THR147  SER148  SER149  ASN150  TYR151 
 GLY160  GLY161  ARG162  ASN163  GLY164  TYR165  GLY166  ALA167  LYS168  LEU169 
 THR181  THR215  ILE217  ILE317  GLN376  LYS378  ILE33   TYR34   MG903  

> <Gold.Protein.RotatedAtoms>
   41.5718    3.7320   41.4740 H   0  0  0  0  0  0  0  0  0  0  0  0  # atno 6899 bound_to 962 
   41.3614   -2.0765   38.3611 H   0  0  0  0  0  0  0  0  0  0  0  0  # atno 6908 bound_to 969 
   37.7659   -5.6777   40.5568 H   0  0  0  0  0  0  0  0  0  0  0  0  # atno 6912 bound_to 975 
   46.0398    1.6114   40.4654 H   0  0  0  0  0  0  0  0  0  0  0  0  # atno 6928 bound_to 995 
   27.5703    0.1126   42.9862 H   0  0  0  0  0  0  0  0  0  0  0  0  # atno 7137 bound_to 1220
   27.7211    0.2160   42.0103 H   0  0  0  0  0  0  0  0  0  0  0  0  # atno 7410 bound_to 1497
   44.0657   -0.6280   29.4215 H   0  0  0  0  0  0  0  0  0  0  0  0  # atno 8924 bound_to 2752
   43.4471    0.7182   30.1648 H   0  0  0  0  0  0  0  0  0  0  0  0  # atno 8925 bound_to 2752
   43.5016   -0.7257   30.9769 H   0  0  0  0  0  0  0  0  0  0  0  0  # atno 8926 bound_to 2752
   33.8216   -3.6586   44.9252 H   0  0  0  0  0  0  0  0  0  0  0  0  # atno 9165 bound_to 2997
   41.5237   -3.0441   39.6594 LP  0  0  0  0  0  0  0  0  0  0  0  0  # atno 11896 bound_to 969 
   42.7712   -2.8453   38.6246 LP  0  0  0  0  0  0  0  0  0  0  0  0  # atno 11897 bound_to 969 
   38.8807   -4.6236   40.0145 LP  0  0  0  0  0  0  0  0  0  0  0  0  # atno 11898 bound_to 975 
   37.5364   -4.0803   40.7656 LP  0  0  0  0  0  0  0  0  0  0  0  0  # atno 11899 bound_to 975 
   41.5343    4.8487   42.6572 LP  0  0  0  0  0  0  0  0  0  0  0  0  # atno 11904 bound_to 962 
   40.3321    3.7511   42.5280 LP  0  0  0  0  0  0  0  0  0  0  0  0  # atno 11905 bound_to 962 
   34.3275   -5.1650   45.2756 LP  0  0  0  0  0  0  0  0  0  0  0  0  # atno 11912 bound_to 2997
   34.6403   -4.5158   43.8103 LP  0  0  0  0  0  0  0  0  0  0  0  0  # atno 11913 bound_to 2997
   28.2330   -0.9758   41.0277 LP  0  0  0  0  0  0  0  0  0  0  0  0  # atno 11922 bound_to 1497
   26.6888   -0.9579   41.5583 LP  0  0  0  0  0  0  0  0  0  0  0  0  # atno 11923 bound_to 1497
   26.9129   -0.1541   44.4506 LP  0  0  0  0  0  0  0  0  0  0  0  0  # atno 11930 bound_to 1220
   28.5352   -0.0703   44.2836 LP  0  0  0  0  0  0  0  0  0  0  0  0  # atno 11931 bound_to 1220

$$$$
****|SGG-4|sdf|1|dock21
  -GOLD-   9 72311453D 1   1.00000     0.00000

 46 48  0  0  0  0  0  0  0  0  1 V2000
   36.3409    0.0200   38.5050 S   0  0  0  0  0  0  0  0  0  0  0  0
   36.8901    1.5129   39.1539 C   0  0  0  0  0  0  0  0  0  0  0  0
   38.1959    1.6544   39.2229 N   0  0  0  0  0  0  0  0  0  0  0  0
   38.8113    0.5189   38.7357 C   0  0  0  0  0  0  0  0  0  0  0  0
   37.9687   -0.4838   38.2947 C   0  0  0  0  0  0  0  0  0  0  0  0
   38.2936   -1.8363   37.7476 C   0  0  0  0  0  0  0  0  0  0  0  0
   36.8698   -2.5440   36.8576 S   0  0  0  0  0  0  0  0  0  0  0  0
   36.1930   -3.5215   38.1524 C   0  0  0  0  0  0  0  0  0  0  0  0
   36.1619   -4.9002   38.0079 N   0  0  0  0  0  0  0  0  0  0  0  0
   35.6199   -5.6910   39.0135 C   0  0  0  0  0  0  0  0  0  0  0  0
   35.5948   -7.0812   38.8815 O   0  0  0  0  0  0  0  0  0  0  0  0
   35.1137   -5.1102   40.1057 N   0  0  0  0  0  0  0  0  0  0  0  0
   35.1730   -3.7745   40.1673 C   0  0  0  0  0  0  0  0  0  0  0  0
   34.4386   -3.0160   41.5916 S   0  0  0  0  0  0  0  0  0  0  0  0
   32.7190   -3.1661   41.0425 C   0  0  0  0  0  0  0  0  0  0  0  0
   32.2818   -1.9937   40.2015 C   0  0  0  0  0  0  0  0  0  0  0  0
   33.1269   -0.8953   40.0046 C   0  0  0  0  0  0  0  0  0  0  0  0
   32.7271    0.1753   39.1985 C   0  0  0  0  0  0  0  0  0  0  0  0
   31.4668    0.1806   38.5844 C   0  0  0  0  0  0  0  0  0  0  0  0
   30.6189   -0.9164   38.7939 C   0  0  0  0  0  0  0  0  0  0  0  0
   31.0193   -1.9890   39.5945 C   0  0  0  0  0  0  0  0  0  0  0  0
   30.3382   -2.8253   39.7391 H   0  0  0  0  0  0  0  0  0  0  0  0
   29.6356   -0.9481   38.3292 H   0  0  0  0  0  0  0  0  0  0  0  0
   31.0133    1.3107   37.6767 C   0  0  0  0  0  0  0  0  0  0  0  0
   30.1086    0.7735   36.5656 C   0  0  0  0  0  0  0  0  0  0  0  0
   30.6418    0.0747   35.9115 H   0  0  0  0  0  0  0  0  0  0  0  0
   29.2452    0.2443   36.9845 H   0  0  0  0  0  0  0  0  0  0  0  0
   29.7291    1.5926   35.9456 H   0  0  0  0  0  0  0  0  0  0  0  0
   32.1758    2.1146   37.0881 C   0  0  0  0  0  0  0  0  0  0  0  0
   32.7315    1.5463   36.3346 H   0  0  0  0  0  0  0  0  0  0  0  0
   32.8799    2.4172   37.8708 H   0  0  0  0  0  0  0  0  0  0  0  0
   31.8034    3.0233   36.6023 H   0  0  0  0  0  0  0  0  0  0  0  0
   30.4206    2.0155   38.2755 H   0  0  0  0  0  0  0  0  0  0  0  0
   33.4185    1.0014   39.0517 H   0  0  0  0  0  0  0  0  0  0  0  0
   34.1093   -0.8668   40.4710 H   0  0  0  0  0  0  0  0  0  0  0  0
   32.0510   -3.2438   41.9091 H   0  0  0  0  0  0  0  0  0  0  0  0
   32.6044   -4.0972   40.4750 H   0  0  0  0  0  0  0  0  0  0  0  0
   35.6880   -2.9511   39.2464 N   0  0  0  0  0  0  0  0  0  0  0  0
   36.5359   -5.3206   37.1687 H   0  0  0  0  0  0  0  0  0  0  0  0
   39.1382   -1.7445   37.0544 H   0  0  0  0  0  0  0  0  0  0  0  0
   38.5895   -2.5214   38.5494 H   0  0  0  0  0  0  0  0  0  0  0  0
   39.8941    0.4755   38.7254 H   0  0  0  0  0  0  0  0  0  0  0  0
   35.9098    2.5354   39.6092 C   0  0  0  0  0  0  0  0  0  0  0  0
   35.2188    2.7884   38.7984 H   0  0  0  0  0  0  0  0  0  0  0  0
   36.4294    3.4502   39.9113 H   0  0  0  0  0  0  0  0  0  0  0  0
   35.3165    2.1731   40.4548 H   0  0  0  0  0  0  0  0  0  0  0  0
  1  2  1  0  0  0  0
  1  5  1  0  0  0  0
  2  3  2  0  0  0  0
  2 43  1  0  0  0  0
  3  4  1  0  0  0  0
  4  5  2  0  0  0  0
  4 42  1  0  0  0  0
  5  6  1  0  0  0  0
  6  7  1  0  0  0  0
  6 40  1  0  0  0  0
  6 41  1  0  0  0  0
  7  8  1  0  0  0  0
  8  9  1  0  0  0  0
  8 38  2  0  0  0  0
  9 10  1  0  0  0  0
  9 39  1  0  0  0  0
 10 11  2  0  0  0  0
 10 12  1  0  0  0  0
 12 13  2  0  0  0  0
 13 14  1  0  0  0  0
 13 38  1  0  0  0  0
 14 15  1  0  0  0  0
 15 16  1  0  0  0  0
 15 36  1  0  0  0  0
 15 37  1  0  0  0  0
 16 17  1  0  0  0  0
 16 21  2  0  0  0  0
 17 18  2  0  0  0  0
 17 35  1  0  0  0  0
 18 19  1  0  0  0  0
 18 34  1  0  0  0  0
 19 20  2  0  0  0  0
 19 24  1  0  0  0  0
 20 21  1  0  0  0  0
 20 23  1  0  0  0  0
 21 22  1  0  0  0  0
 24 25  1  0  0  0  0
 24 29  1  0  0  0  0
 24 33  1  0  0  0  0
 25 26  1  0  0  0  0
 25 27  1  0  0  0  0
 25 28  1  0  0  0  0
 29 30  1  0  0  0  0
 29 31  1  0  0  0  0
 29 32  1  0  0  0  0
 43 44  1  0  0  0  0
 43 45  1  0  0  0  0
 43 46  1  0  0  0  0
M  END
> <Gold.Goldscore.Fitness>
67.7756

> <Gold.Goldscore.External.HBond>
1.4847

> <Gold.Protein.ActiveResidues>
 GLU87   ILE88   VAL90   ASN91   ALA92   ASP94   ASN95   ARG98   ILE118  ASN120 
 LYS123  GLY124  ILE125  ILE141  PHE142  THR147  SER148  SER149  ASN150  TYR151 
 GLY160  GLY161  ARG162  ASN163  GLY164  TYR165  GLY166  ALA167  LYS168  LEU169 
 THR181  THR215  ILE217  ILE317  GLN376  LYS378  ILE33   TYR34   MG903  

> <Gold.Goldscore.Internal.HBond>
0.0

> <Gold.Goldscore.Internal.Torsion.Weighted>
-4.6232

> <Gold.Protein.RotatedTorsions>
[ 8833 2752 2751 2750 ] final  -92.65 input   60.00 | X-H torsion
[ 6906  969  968  965 ] final -179.89 input   59.99 | X-H torsion
[ 6910  975  974  971 ] final  -12.12 input   60.00 | X-H torsion
[ 6897  962  961  958 ] final   71.11 input   60.00 | X-H torsion
[ 9084 2997 2996 2994 ] final  -38.60 input   60.00 | X-H torsion
[ 7406 1497 1496 1493 ] final  170.76 input   60.00 | X-H torsion
[ 7140 1220 1219 1216 ] final  115.27 input   60.00 | X-H torsion
[ 6926  995  994  992 ] final   25.13 input   60.0

> <Gold.Goldscore.Constraint.Score>
0.0

> <Gold.Id.Protein>
1ZXM|1ZXM_protein|mol2

> <Gold.Protein.RotatedAtoms>
   40.6750    3.3830   41.8637 H   0  0  0  0  0  0  0  0  0  0  0  0  # atno 6897 bound_to 962 
   42.5663   -2.5035   38.2571 H   0  0  0  0  0  0  0  0  0  0  0  0  # atno 6906 bound_to 969 
   38.8111   -4.3840   40.0676 H   0  0  0  0  0  0  0  0  0  0  0  0  # atno 6910 bound_to 975 
   45.8911    1.1244   38.6740 H   0  0  0  0  0  0  0  0  0  0  0  0  # atno 6926 bound_to 995 
   28.0475    0.1168   43.0607 H   0  0  0  0  0  0  0  0  0  0  0  0  # atno 7140 bound_to 1220
   28.2838   -0.9017   41.0

> <Gold.Version>
5.3.0

> <Gold.Goldscore.Internal.Correction>
-0.0166

> <Gold.Goldscore.Internal.Vdw>
-1.3472

> <Gold.Goldscore.Internal.Vdw.Weighted>
-1.3472

> <Gold.Goldscore.External.HBond.Weighted>
1.4847

> <Gold.Goldscore.External.Vdw.Weighted>
72.2447

> <Gold.Goldscore.Internal.HBond.Weighted>
0.0

> <Gold.Goldscore.Hbonds>
donor molecule, donor type, donor heavy atom, donor atom, acceptor molecule, acceptor atom, score
      L1  H     1    27       P1   757  0.74

> <Gold.Goldscore.External.Vdw>
52.5416

> <Gold.Goldscore.Internal.Torsion>
-4.6232

> <Gold.Goldscore.Internal.Correction.Weighted>
-0.0166

> <Gold.Version>
5.3.0

> <Gold.Id.Protein>
1ZXM|1ZXM_protein|mol2

> <Gold.ASP.Fitness>
29.1754

> <Gold.ASP.ASP>
31.3040

> <Gold.ASP.Map>
-156.5200

> <Gold.ASP.DEClash>
0.5772

> <Gold.ASP.DEInternal>
1.5514

> <Gold.ASP.Internal.Correction>
0.1091

> <Gold.Protein.RotatedTorsions>
[ 8924 2752 2751 2750 ] final  149.63 input   60.00 | X-H torsion
[ 6908  969  968  965 ] final  159.41 input   59.99 | X-H torsion
[ 6912  975  974  971 ] final  137.28 input   60.00 | X-H torsion
[ 6899  962  961  958 ] final  179.79 input   60.00 | X-H torsion
[ 9165 2997 2996 2994 ] final  165.68 input   60.00 | X-H torsion
[ 7410 1497 1496 1493 ] final -111.83 input   60.00 | X-H torsion
[ 7137 1220 1219 1216 ] final  -62.70 input   60.00 | X-H torsion
[ 6928  995  994  992 ] final -171.29 input   60.00 | X-H torsion

> <Gold.Protein.ActiveResidues>
 GLU87   ILE88   VAL90   ASN91   ALA92   ASP94   ASN95   ARG98   ILE118  ASN120 
 LYS123  GLY124  ILE125  ILE141  PHE142  THR147  SER148  SER149  ASN150  TYR151 
 GLY160  GLY161  ARG162  ASN163  GLY164  TYR165  GLY166  ALA167  LYS168  LEU169 
 THR181  THR215  ILE217  ILE317  GLN376  LYS378  ILE33   TYR34   MG903  

> <Gold.Protein.RotatedAtoms>
   40.6772    4.4411   42.9568 H   0  0  0  0  0  0  0  0  0  0  0  0  # atno 6899 bound_to 962 
   42.3221   -2.3123   38.1268 H   0  0  0  0  0  0  0  0  0  0  0  0  # atno 6908 bound_to 969 
   37.5906   -5.5779   40.6564 H   0  0  0  0  0  0  0  0  0  0  0  0  # atno 6912 bound_to 975 
   45.9665    1.6083   40.4614 H   0  0  0  0  0  0  0  0  0  0  0  0  # atno 6928 bound_to 995 
   27.2674   -0.1865   44.7351 H   0  0  0  0  0  0  0  0  0  0  0  0  # atno 7137 bound_to 1220
   28.2170    0.0531   41.7327 H   0  0  0  0  0  0  0  0  0  0  0  0  # atno 7410 bound_to 1497
   43.2945    0.4881   30.7205 H   0  0  0  0  0  0  0  0  0  0  0  0  # atno 8924 bound_to 2752
   43.7563   -1.0944   30.5479 H   0  0  0  0  0  0  0  0  0  0  0  0  # atno 8925 bound_to 2752
   43.9636   -0.0292   29.2950 H   0  0  0  0  0  0  0  0  0  0  0  0  # atno 8926 bound_to 2752
   34.1897   -4.9856   45.4316 H   0  0  0  0  0  0  0  0  0  0  0  0  # atno 9165 bound_to 2997
   40.9915   -2.4086   39.0587 LP  0  0  0  0  0  0  0  0  0  0  0  0  # atno 11896 bound_to 969 
   42.3360   -3.2434   39.4613 LP  0  0  0  0  0  0  0  0  0  0  0  0  # atno 11897 bound_to 969 
   38.8882   -4.8494   39.9980 LP  0  0  0  0  0  0  0  0  0  0  0  0  # atno 11898 bound_to 975 
   37.7054   -3.9549   40.6818 LP  0  0  0  0  0  0  0  0  0  0  0  0  # atno 11899 bound_to 975 
   40.8095    3.3727   41.7366 LP  0  0  0  0  0  0  0  0  0  0  0  0  # atno 11904 bound_to 962 
   41.9577    4.5130   41.9552 LP  0  0  0  0  0  0  0  0  0  0  0  0  # atno 11905 bound_to 962 
   34.7094   -4.7651   43.9054 LP  0  0  0  0  0  0  0  0  0  0  0  0  # atno 11912 bound_to 2997
   33.8877   -3.5793   44.6705 LP  0  0  0  0  0  0  0  0  0  0  0  0  # atno 11913 bound_to 2997
   27.7386   -1.3027   40.9705 LP  0  0  0  0  0  0  0  0  0  0  0  0  # atno 11922 bound_to 1497
   26.6837   -0.4669   41.8952 LP  0  0  0  0  0  0  0  0  0  0  0  0  # atno 11923 bound_to 1497
   28.6122    0.0057   43.8393 LP  0  0  0  0  0  0  0  0  0  0  0  0  # atno 11930 bound_to 1220
   27.1411    0.0711   43.1334 LP  0  0  0  0  0  0  0  0  0  0  0  0  # atno 11931 bound_to 1220

$$$$
****|SGG-4|sdf|1|dock3
  -GOLD-   9 72311443D 1   1.00000     0.00000

 46 48  0  0  0  0  0  0  0  0  1 V2000
   35.2175   -2.7272   39.5757 S   0  0  0  0  0  0  0  0  0  0  0  0
   33.9566   -3.8393   39.9293 C   0  0  0  0  0  0  0  0  0  0  0  0
   33.7165   -4.7378   38.9993 N   0  0  0  0  0  0  0  0  0  0  0  0
   34.5760   -4.5454   37.9363 C   0  0  0  0  0  0  0  0  0  0  0  0
   35.4705   -3.4996   38.0633 C   0  0  0  0  0  0  0  0  0  0  0  0
   36.5012   -2.9990   37.1037 C   0  0  0  0  0  0  0  0  0  0  0  0
   38.1699   -3.0798   37.8311 S   0  0  0  0  0  0  0  0  0  0  0  0
   38.7404   -1.4760   37.3920 C   0  0  0  0  0  0  0  0  0  0  0  0
   39.7864   -1.3585   36.4894 N   0  0  0  0  0  0  0  0  0  0  0  0
   40.2614   -0.1010   36.1380 C   0  0  0  0  0  0  0  0  0  0  0  0
   41.3071    0.0273   35.2210 O   0  0  0  0  0  0  0  0  0  0  0  0
   39.7157    0.9862   36.6916 N   0  0  0  0  0  0  0  0  0  0  0  0
   38.7163    0.7901   37.5602 C   0  0  0  0  0  0  0  0  0  0  0  0
   38.0475    2.2377   38.3349 S   0  0  0  0  0  0  0  0  0  0  0  0
   37.2732    1.3853   39.7330 C   0  0  0  0  0  0  0  0  0  0  0  0
   35.8267    1.0515   39.4705 C   0  0  0  0  0  0  0  0  0  0  0  0
   35.0843    0.2996   40.3889 C   0  0  0  0  0  0  0  0  0  0  0  0
   33.7346    0.0192   40.1537 C   0  0  0  0  0  0  0  0  0  0  0  0
   33.1001    0.4693   38.9873 C   0  0  0  0  0  0  0  0  0  0  0  0
   33.8506    1.2121   38.0647 C   0  0  0  0  0  0  0  0  0  0  0  0
   35.1976    1.4974   38.3011 C   0  0  0  0  0  0  0  0  0  0  0  0
   35.7537    2.0750   37.5653 H   0  0  0  0  0  0  0  0  0  0  0  0
   33.3894    1.5813   37.1510 H   0  0  0  0  0  0  0  0  0  0  0  0
   31.6282    0.2114   38.7154 C   0  0  0  0  0  0  0  0  0  0  0  0
   31.3349   -1.2902   38.7418 C   0  0  0  0  0  0  0  0  0  0  0  0
   31.8720   -1.8217   37.9484 H   0  0  0  0  0  0  0  0  0  0  0  0
   31.6339   -1.7314   39.6993 H   0  0  0  0  0  0  0  0  0  0  0  0
   30.2642   -1.4778   38.6080 H   0  0  0  0  0  0  0  0  0  0  0  0
   31.1384    0.8366   37.4064 C   0  0  0  0  0  0  0  0  0  0  0  0
   31.5346    0.3177   36.5270 H   0  0  0  0  0  0  0  0  0  0  0  0
   31.4337    1.8893   37.3395 H   0  0  0  0  0  0  0  0  0  0  0  0
   30.0454    0.7904   37.3475 H   0  0  0  0  0  0  0  0  0  0  0  0
   31.0434    0.6779   39.5198 H   0  0  0  0  0  0  0  0  0  0  0  0
   33.1847   -0.5496   40.8994 H   0  0  0  0  0  0  0  0  0  0  0  0
   35.5487   -0.0681   41.3013 H   0  0  0  0  0  0  0  0  0  0  0  0
   37.3309    2.0080   40.6342 H   0  0  0  0  0  0  0  0  0  0  0  0
   37.8354    0.4692   39.9496 H   0  0  0  0  0  0  0  0  0  0  0  0
   38.2006   -0.3860   37.9372 N   0  0  0  0  0  0  0  0  0  0  0  0
   40.1964   -2.1922   36.0922 H   0  0  0  0  0  0  0  0  0  0  0  0
   36.4751   -3.6195   36.2002 H   0  0  0  0  0  0  0  0  0  0  0  0
   36.2906   -1.9655   36.8081 H   0  0  0  0  0  0  0  0  0  0  0  0
   34.5051   -5.2074   37.0811 H   0  0  0  0  0  0  0  0  0  0  0  0
   33.2065   -3.7358   41.2100 C   0  0  0  0  0  0  0  0  0  0  0  0
   33.8961   -3.7729   42.0596 H   0  0  0  0  0  0  0  0  0  0  0  0
   32.5036   -4.5694   41.3057 H   0  0  0  0  0  0  0  0  0  0  0  0
   32.6478   -2.7966   41.2723 H   0  0  0  0  0  0  0  0  0  0  0  0
  1  2  1  0  0  0  0
  1  5  1  0  0  0  0
  2  3  2  0  0  0  0
  2 43  1  0  0  0  0
  3  4  1  0  0  0  0
  4  5  2  0  0  0  0
  4 42  1  0  0  0  0
  5  6  1  0  0  0  0
  6  7  1  0  0  0  0
  6 40  1  0  0  0  0
  6 41  1  0  0  0  0
  7  8  1  0  0  0  0
  8  9  1  0  0  0  0
  8 38  2  0  0  0  0
  9 10  1  0  0  0  0
  9 39  1  0  0  0  0
 10 11  2  0  0  0  0
 10 12  1  0  0  0  0
 12 13  2  0  0  0  0
 13 14  1  0  0  0  0
 13 38  1  0  0  0  0
 14 15  1  0  0  0  0
 15 16  1  0  0  0  0
 15 36  1  0  0  0  0
 15 37  1  0  0  0  0
 16 17  1  0  0  0  0
 16 21  2  0  0  0  0
 17 18  2  0  0  0  0
 17 35  1  0  0  0  0
 18 19  1  0  0  0  0
 18 34  1  0  0  0  0
 19 20  2  0  0  0  0
 19 24  1  0  0  0  0
 20 21  1  0  0  0  0
 20 23  1  0  0  0  0
 21 22  1  0  0  0  0
 24 25  1  0  0  0  0
 24 29  1  0  0  0  0
 24 33  1  0  0  0  0
 25 26  1  0  0  0  0
 25 27  1  0  0  0  0
 25 28  1  0  0  0  0
 29 30  1  0  0  0  0
 29 31  1  0  0  0  0
 29 32  1  0  0  0  0
 43 44  1  0  0  0  0
 43 45  1  0  0  0  0
 43 46  1  0  0  0  0
M  END
> <Gold.Goldscore.Fitness>
67.7756

> <Gold.Goldscore.External.HBond>
1.4847

> <Gold.Protein.ActiveResidues>
 GLU87   ILE88   VAL90   ASN91   ALA92   ASP94   ASN95   ARG98   ILE118  ASN120 
 LYS123  GLY124  ILE125  ILE141  PHE142  THR147  SER148  SER149  ASN150  TYR151 
 GLY160  GLY161  ARG162  ASN163  GLY164  TYR165  GLY166  ALA167  LYS168  LEU169 
 THR181  THR215  ILE217  ILE317  GLN376  LYS378  ILE33   TYR34   MG903  

> <Gold.Goldscore.Internal.HBond>
0.0

> <Gold.Goldscore.Internal.Torsion.Weighted>
-4.6232

> <Gold.Protein.RotatedTorsions>
[ 8833 2752 2751 2750 ] final  -92.65 input   60.00 | X-H torsion
[ 6906  969  968  965 ] final -179.89 input   59.99 | X-H torsion
[ 6910  975  974  971 ] final  -12.12 input   60.00 | X-H torsion
[ 6897  962  961  958 ] final   71.11 input   60.00 | X-H torsion
[ 9084 2997 2996 2994 ] final  -38.60 input   60.00 | X-H torsion
[ 7406 1497 1496 1493 ] final  170.76 input   60.00 | X-H torsion
[ 7140 1220 1219 1216 ] final  115.27 input   60.00 | X-H torsion
[ 6926  995  994  992 ] final   25.13 input   60.0

> <Gold.Goldscore.Constraint.Score>
0.0

> <Gold.Id.Protein>
1ZXM|1ZXM_protein|mol2

> <Gold.Protein.RotatedAtoms>
   40.6750    3.3830   41.8637 H   0  0  0  0  0  0  0  0  0  0  0  0  # atno 6897 bound_to 962 
   42.5663   -2.5035   38.2571 H   0  0  0  0  0  0  0  0  0  0  0  0  # atno 6906 bound_to 969 
   38.8111   -4.3840   40.0676 H   0  0  0  0  0  0  0  0  0  0  0  0  # atno 6910 bound_to 975 
   45.8911    1.1244   38.6740 H   0  0  0  0  0  0  0  0  0  0  0  0  # atno 6926 bound_to 995 
   28.0475    0.1168   43.0607 H   0  0  0  0  0  0  0  0  0  0  0  0  # atno 7140 bound_to 1220
   28.2838   -0.9017   41.0

> <Gold.Version>
5.3.0

> <Gold.Goldscore.Internal.Correction>
-0.0166

> <Gold.Goldscore.Internal.Vdw>
-1.3472

> <Gold.Goldscore.Internal.Vdw.Weighted>
-1.3472

> <Gold.Goldscore.External.HBond.Weighted>
1.4847

> <Gold.Goldscore.External.Vdw.Weighted>
72.2447

> <Gold.Goldscore.Internal.HBond.Weighted>
0.0

> <Gold.Goldscore.Hbonds>
donor molecule, donor type, donor heavy atom, donor atom, acceptor molecule, acceptor atom, score
      L1  H     1    27       P1   757  0.74

> <Gold.Goldscore.External.Vdw>
52.5416

> <Gold.Goldscore.Internal.Torsion>
-4.6232

> <Gold.Goldscore.Internal.Correction.Weighted>
-0.0166

> <Gold.Version>
5.3.0

> <Gold.Id.Protein>
1ZXM|1ZXM_protein|mol2

> <Gold.ASP.Fitness>
29.1311

> <Gold.ASP.ASP>
32.5960

> <Gold.ASP.Map>
-162.9800

> <Gold.ASP.DEClash>
2.6751

> <Gold.ASP.DEInternal>
0.7898

> <Gold.ASP.Internal.Correction>
0.1091

> <Gold.Protein.RotatedTorsions>
[ 8924 2752 2751 2750 ] final  -72.15 input   60.00 | X-H torsion
[ 6908  969  968  965 ] final  116.02 input   59.99 | X-H torsion
[ 6912  975  974  971 ] final -112.26 input   60.00 | X-H torsion
[ 6899  962  961  958 ] final  -36.46 input   60.00 | X-H torsion
[ 9165 2997 2996 2994 ] final   75.96 input   60.00 | X-H torsion
[ 7410 1497 1496 1493 ] final    9.53 input   60.00 | X-H torsion
[ 7137 1220 1219 1216 ] final    1.15 input   60.00 | X-H torsion
[ 6928  995  994  992 ] final  172.40 input   60.00 | X-H torsion

> <Gold.Protein.ActiveResidues>
 GLU87   ILE88   VAL90   ASN91   ALA92   ASP94   ASN95   ARG98   ILE118  ASN120 
 LYS123  GLY124  ILE125  ILE141  PHE142  THR147  SER148  SER149  ASN150  TYR151 
 GLY160  GLY161  ARG162  ASN163  GLY164  TYR165  GLY166  ALA167  LYS168  LEU169 
 THR181  THR215  ILE217  ILE317  GLN376  LYS378  ILE33   TYR34   MG903  

> <Gold.Protein.RotatedAtoms>
   41.9166    4.2274   41.6979 H   0  0  0  0  0  0  0  0  0  0  0  0  # atno 6899 bound_to 962 
   41.6729   -2.0765   38.1745 H   0  0  0  0  0  0  0  0  0  0  0  0  # atno 6908 bound_to 969 
   37.5901   -4.0422   40.7414 H   0  0  0  0  0  0  0  0  0  0  0  0  # atno 6912 bound_to 975 
   45.7088    1.5846   40.4010 H   0  0  0  0  0  0  0  0  0  0  0  0  # atno 6928 bound_to 995 
   26.7370   -0.0683   43.9076 H   0  0  0  0  0  0  0  0  0  0  0  0  # atno 7137 bound_to 1220
   26.6828   -0.4850   41.8803 H   0  0  0  0  0  0  0  0  0  0  0  0  # atno 7410 bound_to 1497
   43.8729   -1.1435   30.2724 H   0  0  0  0  0  0  0  0  0  0  0  0  # atno 8924 bound_to 2752
   43.8655    0.2474   29.3709 H   0  0  0  0  0  0  0  0  0  0  0  0  # atno 8925 bound_to 2752
   43.2760    0.2606   30.9200 H   0  0  0  0  0  0  0  0  0  0  0  0  # atno 8926 bound_to 2752
   34.7342   -5.1265   44.2366 H   0  0  0  0  0  0  0  0  0  0  0  0  # atno 9165 bound_to 2997
   41.2401   -2.8454   39.5418 LP  0  0  0  0  0  0  0  0  0  0  0  0  # atno 11896 bound_to 969 
   42.7411   -3.0440   38.9302 LP  0  0  0  0  0  0  0  0  0  0  0  0  # atno 11897 bound_to 969 
   37.7059   -5.6581   40.5875 LP  0  0  0  0  0  0  0  0  0  0  0  0  # atno 11898 bound_to 975 
   38.8881   -4.6929   40.0067 LP  0  0  0  0  0  0  0  0  0  0  0  0  # atno 11899 bound_to 975 
   40.9798    4.6816   42.9486 LP  0  0  0  0  0  0  0  0  0  0  0  0  # atno 11904 bound_to 962 
   40.5393    3.4193   42.0111 LP  0  0  0  0  0  0  0  0  0  0  0  0  # atno 11905 bound_to 962 
   34.0908   -3.6318   44.2249 LP  0  0  0  0  0  0  0  0  0  0  0  0  # atno 11912 bound_to 2997
   33.9581   -4.5706   45.5544 LP  0  0  0  0  0  0  0  0  0  0  0  0  # atno 11913 bound_to 2997
   28.2077    0.0676   41.7486 LP  0  0  0  0  0  0  0  0  0  0  0  0  # atno 11922 bound_to 1497
   27.7598   -1.2953   40.9685 LP  0  0  0  0  0  0  0  0  0  0  0  0  # atno 11923 bound_to 1497
   28.1508   -0.1538   44.7087 LP  0  0  0  0  0  0  0  0  0  0  0  0  # atno 11930 bound_to 1220
   28.1367    0.1115   43.0975 LP  0  0  0  0  0  0  0  0  0  0  0  0  # atno 11931 bound_to 1220

$$$$
****|SGG-4|sdf|1|dock43
  -GOLD-   9 72311473D 1   1.00000     0.00000

 46 48  0  0  0  0  0  0  0  0  1 V2000
   36.5030   -0.3405   39.3449 S   0  0  0  0  0  0  0  0  0  0  0  0
   36.6154    1.3710   39.2455 C   0  0  0  0  0  0  0  0  0  0  0  0
   37.3971    1.8330   38.2940 N   0  0  0  0  0  0  0  0  0  0  0  0
   37.9471    0.7783   37.5934 C   0  0  0  0  0  0  0  0  0  0  0  0
   37.5787   -0.4853   38.0147 C   0  0  0  0  0  0  0  0  0  0  0  0
   38.0063   -1.8257   37.5101 C   0  0  0  0  0  0  0  0  0  0  0  0
   36.6950   -2.5995   36.5092 S   0  0  0  0  0  0  0  0  0  0  0  0
   35.8863   -3.5146   37.7737 C   0  0  0  0  0  0  0  0  0  0  0  0
   35.8586   -4.8983   37.6890 N   0  0  0  0  0  0  0  0  0  0  0  0
   35.2141   -5.6406   38.6708 C   0  0  0  0  0  0  0  0  0  0  0  0
   35.1909   -7.0353   38.5997 O   0  0  0  0  0  0  0  0  0  0  0  0
   34.6075   -5.0088   39.6806 N   0  0  0  0  0  0  0  0  0  0  0  0
   34.6711   -3.6719   39.6876 C   0  0  0  0  0  0  0  0  0  0  0  0
   33.8063   -2.8468   40.9969 S   0  0  0  0  0  0  0  0  0  0  0  0
   32.1487   -3.0098   40.2851 C   0  0  0  0  0  0  0  0  0  0  0  0
   31.7447   -1.7944   39.4898 C   0  0  0  0  0  0  0  0  0  0  0  0
   30.6257   -1.8248   38.6492 C   0  0  0  0  0  0  0  0  0  0  0  0
   30.2386   -0.6848   37.9375 C   0  0  0  0  0  0  0  0  0  0  0  0
   30.9707    0.5067   38.0363 C   0  0  0  0  0  0  0  0  0  0  0  0
   32.0975    0.5292   38.8705 C   0  0  0  0  0  0  0  0  0  0  0  0
   32.4821   -0.6074   39.5862 C   0  0  0  0  0  0  0  0  0  0  0  0
   33.3623   -0.5589   40.2242 H   0  0  0  0  0  0  0  0  0  0  0  0
   32.6865    1.4380   38.9749 H   0  0  0  0  0  0  0  0  0  0  0  0
   30.5601    1.7723   37.3038 C   0  0  0  0  0  0  0  0  0  0  0  0
   29.3187    1.5150   36.4469 C   0  0  0  0  0  0  0  0  0  0  0  0
   29.5150    0.7777   35.6607 H   0  0  0  0  0  0  0  0  0  0  0  0
   28.4916    1.1371   37.0585 H   0  0  0  0  0  0  0  0  0  0  0  0
   28.9823    2.4395   35.9656 H   0  0  0  0  0  0  0  0  0  0  0  0
   31.6872    2.3723   36.4589 C   0  0  0  0  0  0  0  0  0  0  0  0
   31.9082    1.7658   35.5742 H   0  0  0  0  0  0  0  0  0  0  0  0
   32.6088    2.4661   37.0435 H   0  0  0  0  0  0  0  0  0  0  0  0
   31.4094    3.3723   36.1078 H   0  0  0  0  0  0  0  0  0  0  0  0
   30.2953    2.5317   38.0520 H   0  0  0  0  0  0  0  0  0  0  0  0
   29.3519   -0.7401   37.3107 H   0  0  0  0  0  0  0  0  0  0  0  0
   30.0393   -2.7353   38.5470 H   0  0  0  0  0  0  0  0  0  0  0  0
   31.4100   -3.1694   41.0801 H   0  0  0  0  0  0  0  0  0  0  0  0
   32.1190   -3.9012   39.6473 H   0  0  0  0  0  0  0  0  0  0  0  0
   35.2808   -2.8932   38.7858 N   0  0  0  0  0  0  0  0  0  0  0  0
   36.3099   -5.3579   36.9106 H   0  0  0  0  0  0  0  0  0  0  0  0
   38.9023   -1.7016   36.8904 H   0  0  0  0  0  0  0  0  0  0  0  0
   38.2617   -2.4926   38.3407 H   0  0  0  0  0  0  0  0  0  0  0  0
   38.6209    0.9921   36.7720 H   0  0  0  0  0  0  0  0  0  0  0  0
   35.8706    2.2258   40.2090 C   0  0  0  0  0  0  0  0  0  0  0  0
   34.8026    1.9861   40.1846 H   0  0  0  0  0  0  0  0  0  0  0  0
   35.9883    3.2821   39.9476 H   0  0  0  0  0  0  0  0  0  0  0  0
   36.2246    2.0763   41.2340 H   0  0  0  0  0  0  0  0  0  0  0  0
  1  2  1  0  0  0  0
  1  5  1  0  0  0  0
  2  3  2  0  0  0  0
  2 43  1  0  0  0  0
  3  4  1  0  0  0  0
  4  5  2  0  0  0  0
  4 42  1  0  0  0  0
  5  6  1  0  0  0  0
  6  7  1  0  0  0  0
  6 40  1  0  0  0  0
  6 41  1  0  0  0  0
  7  8  1  0  0  0  0
  8  9  1  0  0  0  0
  8 38  2  0  0  0  0
  9 10  1  0  0  0  0
  9 39  1  0  0  0  0
 10 11  2  0  0  0  0
 10 12  1  0  0  0  0
 12 13  2  0  0  0  0
 13 14  1  0  0  0  0
 13 38  1  0  0  0  0
 14 15  1  0  0  0  0
 15 16  1  0  0  0  0
 15 36  1  0  0  0  0
 15 37  1  0  0  0  0
 16 17  1  0  0  0  0
 16 21  2  0  0  0  0
 17 18  2  0  0  0  0
 17 35  1  0  0  0  0
 18 19  1  0  0  0  0
 18 34  1  0  0  0  0
 19 20  2  0  0  0  0
 19 24  1  0  0  0  0
 20 21  1  0  0  0  0
 20 23  1  0  0  0  0
 21 22  1  0  0  0  0
 24 25  1  0  0  0  0
 24 29  1  0  0  0  0
 24 33  1  0  0  0  0
 25 26  1  0  0  0  0
 25 27  1  0  0  0  0
 25 28  1  0  0  0  0
 29 30  1  0  0  0  0
 29 31  1  0  0  0  0
 29 32  1  0  0  0  0
 43 44  1  0  0  0  0
 43 45  1  0  0  0  0
 43 46  1  0  0  0  0
M  END
> <Gold.Goldscore.Fitness>
67.7756

> <Gold.Goldscore.External.HBond>
1.4847

> <Gold.Protein.ActiveResidues>
 GLU87   ILE88   VAL90   ASN91   ALA92   ASP94   ASN95   ARG98   ILE118  ASN120 
 LYS123  GLY124  ILE125  ILE141  PHE142  THR147  SER148  SER149  ASN150  TYR151 
 GLY160  GLY161  ARG162  ASN163  GLY164  TYR165  GLY166  ALA167  LYS168  LEU169 
 THR181  THR215  ILE217  ILE317  GLN376  LYS378  ILE33   TYR34   MG903  

> <Gold.Goldscore.Internal.HBond>
0.0

> <Gold.Goldscore.Internal.Torsion.Weighted>
-4.6232

> <Gold.Protein.RotatedTorsions>
[ 8833 2752 2751 2750 ] final  -92.65 input   60.00 | X-H torsion
[ 6906  969  968  965 ] final -179.89 input   59.99 | X-H torsion
[ 6910  975  974  971 ] final  -12.12 input   60.00 | X-H torsion
[ 6897  962  961  958 ] final   71.11 input   60.00 | X-H torsion
[ 9084 2997 2996 2994 ] final  -38.60 input   60.00 | X-H torsion
[ 7406 1497 1496 1493 ] final  170.76 input   60.00 | X-H torsion
[ 7140 1220 1219 1216 ] final  115.27 input   60.00 | X-H torsion
[ 6926  995  994  992 ] final   25.13 input   60.0

> <Gold.Goldscore.Constraint.Score>
0.0

> <Gold.Id.Protein>
1ZXM|1ZXM_protein|mol2

> <Gold.Protein.RotatedAtoms>
   40.6750    3.3830   41.8637 H   0  0  0  0  0  0  0  0  0  0  0  0  # atno 6897 bound_to 962 
   42.5663   -2.5035   38.2571 H   0  0  0  0  0  0  0  0  0  0  0  0  # atno 6906 bound_to 969 
   38.8111   -4.3840   40.0676 H   0  0  0  0  0  0  0  0  0  0  0  0  # atno 6910 bound_to 975 
   45.8911    1.1244   38.6740 H   0  0  0  0  0  0  0  0  0  0  0  0  # atno 6926 bound_to 995 
   28.0475    0.1168   43.0607 H   0  0  0  0  0  0  0  0  0  0  0  0  # atno 7140 bound_to 1220
   28.2838   -0.9017   41.0

> <Gold.Version>
5.3.0

> <Gold.Goldscore.Internal.Correction>
-0.0166

> <Gold.Goldscore.Internal.Vdw>
-1.3472

> <Gold.Goldscore.Internal.Vdw.Weighted>
-1.3472

> <Gold.Goldscore.External.HBond.Weighted>
1.4847

> <Gold.Goldscore.External.Vdw.Weighted>
72.2447

> <Gold.Goldscore.Internal.HBond.Weighted>
0.0

> <Gold.Goldscore.Hbonds>
donor molecule, donor type, donor heavy atom, donor atom, acceptor molecule, acceptor atom, score
      L1  H     1    27       P1   757  0.74

> <Gold.Goldscore.External.Vdw>
52.5416

> <Gold.Goldscore.Internal.Torsion>
-4.6232

> <Gold.Goldscore.Internal.Correction.Weighted>
-0.0166

> <Gold.Version>
5.3.0

> <Gold.Id.Protein>
1ZXM|1ZXM_protein|mol2

> <Gold.ASP.Fitness>
29.0803

> <Gold.ASP.ASP>
31.5700

> <Gold.ASP.Map>
-157.8500

> <Gold.ASP.DEClash>
0.1994

> <Gold.ASP.DEInternal>
2.2902

> <Gold.ASP.Internal.Correction>
0.1091

> <Gold.Protein.RotatedTorsions>
[ 8924 2752 2751 2750 ] final   81.53 input   60.00 | X-H torsion
[ 6908  969  968  965 ] final   -7.83 input   59.99 | X-H torsion
[ 6912  975  974  971 ] final   40.54 input   60.00 | X-H torsion
[ 6899  962  961  958 ] final  -87.59 input   60.00 | X-H torsion
[ 9165 2997 2996 2994 ] final   86.55 input   60.00 | X-H torsion
[ 7410 1497 1496 1493 ] final   44.13 input   60.00 | X-H torsion
[ 7137 1220 1219 1216 ] final  167.75 input   60.00 | X-H torsion
[ 6928  995  994  992 ] final   41.09 input   60.00 | X-H torsion

> <Gold.Protein.ActiveResidues>
 GLU87   ILE88   VAL90   ASN91   ALA92   ASP94   ASN95   ARG98   ILE118  ASN120 
 LYS123  GLY124  ILE125  ILE141  PHE142  THR147  SER148  SER149  ASN150  TYR151 
 GLY160  GLY161  ARG162  ASN163  GLY164  TYR165  GLY166  ALA167  LYS168  LEU169 
 THR181  THR215  ILE217  ILE317  GLN376  LYS378  ILE33   TYR34   MG903  

> <Gold.Protein.RotatedAtoms>
   41.8269    4.7466   42.3104 H   0  0  0  0  0  0  0  0  0  0  0  0  # atno 6899 bound_to 962 
   41.2880   -2.8792   39.5663 H   0  0  0  0  0  0  0  0  0  0  0  0  # atno 6908 bound_to 969 
   38.7896   -5.2135   40.0334 H   0  0  0  0  0  0  0  0  0  0  0  0  # atno 6912 bound_to 975 
   45.6446    1.1393   38.7556 H   0  0  0  0  0  0  0  0  0  0  0  0  # atno 6928 bound_to 995 
   28.5807    0.0318   43.6881 H   0  0  0  0  0  0  0  0  0  0  0  0  # atno 7137 bound_to 1220
   26.6899   -0.9436   41.5648 H   0  0  0  0  0  0  0  0  0  0  0  0  # atno 7410 bound_to 1497
   43.6419    0.6199   29.7154 H   0  0  0  0  0  0  0  0  0  0  0  0  # atno 8924 bound_to 2752
   43.3447   -0.2640   31.0857 H   0  0  0  0  0  0  0  0  0  0  0  0  # atno 8925 bound_to 2752
   44.0278   -0.9913   29.7622 H   0  0  0  0  0  0  0  0  0  0  0  0  # atno 8926 bound_to 2752
   34.7122   -5.2137   44.3840 H   0  0  0  0  0  0  0  0  0  0  0  0  # atno 9165 bound_to 2997
   42.7559   -3.0132   38.8768 LP  0  0  0  0  0  0  0  0  0  0  0  0  # atno 11896 bound_to 969 
   41.6130   -2.0679   38.1936 LP  0  0  0  0  0  0  0  0  0  0  0  0  # atno 11897 bound_to 969 
   38.0311   -3.8559   40.5126 LP  0  0  0  0  0  0  0  0  0  0  0  0  # atno 11898 bound_to 975 
   37.3550   -5.3154   40.7946 LP  0  0  0  0  0  0  0  0  0  0  0  0  # atno 11899 bound_to 975 
   40.4210    4.1046   42.8193 LP  0  0  0  0  0  0  0  0  0  0  0  0  # atno 11904 bound_to 962 
   41.1885    3.4734   41.5235 LP  0  0  0  0  0  0  0  0  0  0  0  0  # atno 11905 bound_to 962 
   34.1761   -3.7052   44.0923 LP  0  0  0  0  0  0  0  0  0  0  0  0  # atno 11912 bound_to 2997
   33.8948   -4.4094   45.5386 LP  0  0  0  0  0  0  0  0  0  0  0  0  # atno 11913 bound_to 2997
   27.7362    0.2201   42.0109 LP  0  0  0  0  0  0  0  0  0  0  0  0  # atno 11922 bound_to 1497
   28.2241   -0.9859   41.0239 LP  0  0  0  0  0  0  0  0  0  0  0  0  # atno 11923 bound_to 1497
   27.0193    0.0509   43.2305 LP  0  0  0  0  0  0  0  0  0  0  0  0  # atno 11930 bound_to 1220
   27.4111   -0.1939   44.7967 LP  0  0  0  0  0  0  0  0  0  0  0  0  # atno 11931 bound_to 1220

$$$$
****|SGG-4|sdf|1|dock1
  -GOLD-   9 72311433D 1   1.00000     0.00000

 46 48  0  0  0  0  0  0  0  0  1 V2000
   36.2432   -8.2978   40.3940 S   0  0  0  0  0  0  0  0  0  0  0  0
   35.6119   -9.8227   39.9168 C   0  0  0  0  0  0  0  0  0  0  0  0
   35.5242  -10.0184   38.6192 N   0  0  0  0  0  0  0  0  0  0  0  0
   35.9813   -8.9008   37.9501 C   0  0  0  0  0  0  0  0  0  0  0  0
   36.4182   -7.8573   38.7438 C   0  0  0  0  0  0  0  0  0  0  0  0
   36.9361   -6.5101   38.3553 C   0  0  0  0  0  0  0  0  0  0  0  0
   35.5951   -5.4460   37.7313 S   0  0  0  0  0  0  0  0  0  0  0  0
   36.4138   -3.8926   37.8150 C   0  0  0  0  0  0  0  0  0  0  0  0
   36.8440   -3.2954   36.6399 N   0  0  0  0  0  0  0  0  0  0  0  0
   37.5044   -2.0738   36.6840 C   0  0  0  0  0  0  0  0  0  0  0  0
   37.9312   -1.4595   35.5045 O   0  0  0  0  0  0  0  0  0  0  0  0
   37.7367   -1.4943   37.8658 N   0  0  0  0  0  0  0  0  0  0  0  0
   37.2983   -2.1370   38.9551 C   0  0  0  0  0  0  0  0  0  0  0  0
   37.6720   -1.3881   40.5180 S   0  0  0  0  0  0  0  0  0  0  0  0
   36.9203    0.2208   40.1616 C   0  0  0  0  0  0  0  0  0  0  0  0
   35.4915    0.0954   39.6972 C   0  0  0  0  0  0  0  0  0  0  0  0
   34.5792   -0.7111   40.3878 C   0  0  0  0  0  0  0  0  0  0  0  0
   33.2477   -0.7992   39.9694 C   0  0  0  0  0  0  0  0  0  0  0  0
   32.8012   -0.0967   38.8412 C   0  0  0  0  0  0  0  0  0  0  0  0
   33.7213    0.7008   38.1457 C   0  0  0  0  0  0  0  0  0  0  0  0
   35.0504    0.7939   38.5659 C   0  0  0  0  0  0  0  0  0  0  0  0
   35.7409    1.4200   38.0042 H   0  0  0  0  0  0  0  0  0  0  0  0
   33.4086    1.2635   37.2686 H   0  0  0  0  0  0  0  0  0  0  0  0
   31.3554   -0.1433   38.3783 C   0  0  0  0  0  0  0  0  0  0  0  0
   30.8000    1.2734   38.2169 C   0  0  0  0  0  0  0  0  0  0  0  0
   30.7799    1.8116   39.1710 H   0  0  0  0  0  0  0  0  0  0  0  0
   31.4106    1.8567   37.5185 H   0  0  0  0  0  0  0  0  0  0  0  0
   29.7781    1.2459   37.8239 H   0  0  0  0  0  0  0  0  0  0  0  0
   30.4557   -0.9773   39.2943 C   0  0  0  0  0  0  0  0  0  0  0  0
   30.2771   -0.4861   40.2568 H   0  0  0  0  0  0  0  0  0  0  0  0
   30.8996   -1.9589   39.4928 H   0  0  0  0  0  0  0  0  0  0  0  0
   29.4793   -1.1395   38.8247 H   0  0  0  0  0  0  0  0  0  0  0  0
   31.3260   -0.6257   37.3918 H   0  0  0  0  0  0  0  0  0  0  0  0
   32.5630   -1.4191   40.5429 H   0  0  0  0  0  0  0  0  0  0  0  0
   34.8954   -1.2725   41.2643 H   0  0  0  0  0  0  0  0  0  0  0  0
   37.4954    0.7436   39.3876 H   0  0  0  0  0  0  0  0  0  0  0  0
   36.9678    0.8454   41.0616 H   0  0  0  0  0  0  0  0  0  0  0  0
   36.6477   -3.3061   38.9890 N   0  0  0  0  0  0  0  0  0  0  0  0
   36.6725   -3.7553   35.7568 H   0  0  0  0  0  0  0  0  0  0  0  0
   37.3875   -6.0368   39.2352 H   0  0  0  0  0  0  0  0  0  0  0  0
   37.7105   -6.5964   37.5854 H   0  0  0  0  0  0  0  0  0  0  0  0
   35.9732   -8.9014   36.8664 H   0  0  0  0  0  0  0  0  0  0  0  0
   35.1907  -10.8119   40.9453 C   0  0  0  0  0  0  0  0  0  0  0  0
   36.0169  -11.0228   41.6320 H   0  0  0  0  0  0  0  0  0  0  0  0
   34.8964  -11.7521   40.4683 H   0  0  0  0  0  0  0  0  0  0  0  0
   34.3486  -10.4401   41.5376 H   0  0  0  0  0  0  0  0  0  0  0  0
  1  2  1  0  0  0  0
  1  5  1  0  0  0  0
  2  3  2  0  0  0  0
  2 43  1  0  0  0  0
  3  4  1  0  0  0  0
  4  5  2  0  0  0  0
  4 42  1  0  0  0  0
  5  6  1  0  0  0  0
  6  7  1  0  0  0  0
  6 40  1  0  0  0  0
  6 41  1  0  0  0  0
  7  8  1  0  0  0  0
  8  9  1  0  0  0  0
  8 38  2  0  0  0  0
  9 10  1  0  0  0  0
  9 39  1  0  0  0  0
 10 11  2  0  0  0  0
 10 12  1  0  0  0  0
 12 13  2  0  0  0  0
 13 14  1  0  0  0  0
 13 38  1  0  0  0  0
 14 15  1  0  0  0  0
 15 16  1  0  0  0  0
 15 36  1  0  0  0  0
 15 37  1  0  0  0  0
 16 17  1  0  0  0  0
 16 21  2  0  0  0  0
 17 18  2  0  0  0  0
 17 35  1  0  0  0  0
 18 19  1  0  0  0  0
 18 34  1  0  0  0  0
 19 20  2  0  0  0  0
 19 24  1  0  0  0  0
 20 21  1  0  0  0  0
 20 23  1  0  0  0  0
 21 22  1  0  0  0  0
 24 25  1  0  0  0  0
 24 29  1  0  0  0  0
 24 33  1  0  0  0  0
 25 26  1  0  0  0  0
 25 27  1  0  0  0  0
 25 28  1  0  0  0  0
 29 30  1  0  0  0  0
 29 31  1  0  0  0  0
 29 32  1  0  0  0  0
 43 44  1  0  0  0  0
 43 45  1  0  0  0  0
 43 46  1  0  0  0  0
M  END
> <Gold.Goldscore.Fitness>
67.7756

> <Gold.Goldscore.External.HBond>
1.4847

> <Gold.Protein.ActiveResidues>
 GLU87   ILE88   VAL90   ASN91   ALA92   ASP94   ASN95   ARG98   ILE118  ASN120 
 LYS123  GLY124  ILE125  ILE141  PHE142  THR147  SER148  SER149  ASN150  TYR151 
 GLY160  GLY161  ARG162  ASN163  GLY164  TYR165  GLY166  ALA167  LYS168  LEU169 
 THR181  THR215  ILE217  ILE317  GLN376  LYS378  ILE33   TYR34   MG903  

> <Gold.Goldscore.Internal.HBond>
0.0

> <Gold.Goldscore.Internal.Torsion.Weighted>
-4.6232

> <Gold.Protein.RotatedTorsions>
[ 8833 2752 2751 2750 ] final  -92.65 input   60.00 | X-H torsion
[ 6906  969  968  965 ] final -179.89 input   59.99 | X-H torsion
[ 6910  975  974  971 ] final  -12.12 input   60.00 | X-H torsion
[ 6897  962  961  958 ] final   71.11 input   60.00 | X-H torsion
[ 9084 2997 2996 2994 ] final  -38.60 input   60.00 | X-H torsion
[ 7406 1497 1496 1493 ] final  170.76 input   60.00 | X-H torsion
[ 7140 1220 1219 1216 ] final  115.27 input   60.00 | X-H torsion
[ 6926  995  994  992 ] final   25.13 input   60.0

> <Gold.Goldscore.Constraint.Score>
0.0

> <Gold.Id.Protein>
1ZXM|1ZXM_protein|mol2

> <Gold.Protein.RotatedAtoms>
   40.6750    3.3830   41.8637 H   0  0  0  0  0  0  0  0  0  0  0  0  # atno 6897 bound_to 962 
   42.5663   -2.5035   38.2571 H   0  0  0  0  0  0  0  0  0  0  0  0  # atno 6906 bound_to 969 
   38.8111   -4.3840   40.0676 H   0  0  0  0  0  0  0  0  0  0  0  0  # atno 6910 bound_to 975 
   45.8911    1.1244   38.6740 H   0  0  0  0  0  0  0  0  0  0  0  0  # atno 6926 bound_to 995 
   28.0475    0.1168   43.0607 H   0  0  0  0  0  0  0  0  0  0  0  0  # atno 7140 bound_to 1220
   28.2838   -0.9017   41.0

> <Gold.Version>
5.3.0

> <Gold.Goldscore.Internal.Correction>
-0.0166

> <Gold.Goldscore.Internal.Vdw>
-1.3472

> <Gold.Goldscore.Internal.Vdw.Weighted>
-1.3472

> <Gold.Goldscore.External.HBond.Weighted>
1.4847

> <Gold.Goldscore.External.Vdw.Weighted>
72.2447

> <Gold.Goldscore.Internal.HBond.Weighted>
0.0

> <Gold.Goldscore.Hbonds>
donor molecule, donor type, donor heavy atom, donor atom, acceptor molecule, acceptor atom, score
      L1  H     1    27       P1   757  0.74

> <Gold.Goldscore.External.Vdw>
52.5416

> <Gold.Goldscore.Internal.Torsion>
-4.6232

> <Gold.Goldscore.Internal.Correction.Weighted>
-0.0166

> <Gold.Version>
5.3.0

> <Gold.Id.Protein>
1ZXM|1ZXM_protein|mol2

> <Gold.ASP.Fitness>
29.0086

> <Gold.ASP.ASP>
31.3080

> <Gold.ASP.Map>
-156.5400

> <Gold.ASP.DEClash>
1.7954

> <Gold.ASP.DEInternal>
0.5041

> <Gold.ASP.Internal.Correction>
0.1091

> <Gold.Protein.RotatedTorsions>
[ 8924 2752 2751 2750 ] final   12.19 input   60.00 | X-H torsion
[ 6908  969  968  965 ] final  156.26 input   59.99 | X-H torsion
[ 6912  975  974  971 ] final    3.85 input   60.00 | X-H torsion
[ 6899  962  961  958 ] final  169.61 input   60.00 | X-H torsion
[ 9165 2997 2996 2994 ] final  -70.74 input   60.00 | X-H torsion
[ 7410 1497 1496 1493 ] final   39.98 input   60.00 | X-H torsion
[ 7137 1220 1219 1216 ] final  103.54 input   60.00 | X-H torsion
[ 6928  995  994  992 ] final -123.48 input   60.00 | X-H torsion

> <Gold.Protein.ActiveResidues>
 GLU87   ILE88   VAL90   ASN91   ALA92   ASP94   ASN95   ARG98   ILE118  ASN120 
 LYS123  GLY124  ILE125  ILE141  PHE142  THR147  SER148  SER149  ASN150  TYR151 
 GLY160  GLY161  ARG162  ASN163  GLY164  TYR165  GLY166  ALA167  LYS168  LEU169 
 THR181  THR215  ILE217  ILE317  GLN376  LYS378  ILE33   TYR34   MG903  

> <Gold.Protein.RotatedAtoms>
   40.5683    4.3203   42.9230 H   0  0  0  0  0  0  0  0  0  0  0  0  # atno 6899 bound_to 962 
   42.2790   -2.2865   38.1153 H   0  0  0  0  0  0  0  0  0  0  0  0  # atno 6908 bound_to 969 
   38.8769   -4.6310   40.0187 H   0  0  0  0  0  0  0  0  0  0  0  0  # atno 6912 bound_to 975 
   46.6877    1.5663   40.2295 H   0  0  0  0  0  0  0  0  0  0  0  0  # atno 6928 bound_to 995 
   27.8654    0.1202   43.0021 H   0  0  0  0  0  0  0  0  0  0  0  0  # atno 7137 bound_to 1220
   26.6720   -0.8927   41.6056 H   0  0  0  0  0  0  0  0  0  0  0  0  # atno 7410 bound_to 1497
   44.0301   -0.3114   29.3062 H   0  0  0  0  0  0  0  0  0  0  0  0  # atno 8924 bound_to 2752
   43.3476    0.6402   30.4792 H   0  0  0  0  0  0  0  0  0  0  0  0  # atno 8925 bound_to 2752
   43.6367   -0.9643   30.7779 H   0  0  0  0  0  0  0  0  0  0  0  0  # atno 8926 bound_to 2752
   33.9118   -3.5781   44.6165 H   0  0  0  0  0  0  0  0  0  0  0  0  # atno 9165 bound_to 2997
   40.9932   -2.4386   39.1010 LP  0  0  0  0  0  0  0  0  0  0  0  0  # atno 11896 bound_to 969 
   42.3776   -3.2395   39.4306 LP  0  0  0  0  0  0  0  0  0  0  0  0  # atno 11897 bound_to 969 
   37.5406   -4.0763   40.7635 LP  0  0  0  0  0  0  0  0  0  0  0  0  # atno 11898 bound_to 975 
   37.7576   -5.6817   40.5584 LP  0  0  0  0  0  0  0  0  0  0  0  0  # atno 11899 bound_to 975 
   40.9460    3.3912   41.6415 LP  0  0  0  0  0  0  0  0  0  0  0  0  # atno 11904 bound_to 962 
   41.9310    4.6161   42.0843 LP  0  0  0  0  0  0  0  0  0  0  0  0  # atno 11905 bound_to 962 
   34.1577   -4.9465   45.4622 LP  0  0  0  0  0  0  0  0  0  0  0  0  # atno 11912 bound_to 2997
   34.7194   -4.8153   43.9345 LP  0  0  0  0  0  0  0  0  0  0  0  0  # atno 11913 bound_to 2997
   27.8000    0.2164   41.9870 LP  0  0  0  0  0  0  0  0  0  0  0  0  # atno 11922 bound_to 1497
   28.1784   -1.0335   41.0067 LP  0  0  0  0  0  0  0  0  0  0  0  0  # atno 11923 bound_to 1497
   26.7770   -0.1156   44.1886 LP  0  0  0  0  0  0  0  0  0  0  0  0  # atno 11930 bound_to 1220
   28.3740   -0.1165   44.5296 LP  0  0  0  0  0  0  0  0  0  0  0  0  # atno 11931 bound_to 1220

$$$$
****|SGG-4|sdf|1|dock88
  -GOLD-   9 72311513D 1   1.00000     0.00000

 46 48  0  0  0  0  0  0  0  0  1 V2000
   36.7166    0.1763   38.8880 S   0  0  0  0  0  0  0  0  0  0  0  0
   37.2102    1.8064   39.1127 C   0  0  0  0  0  0  0  0  0  0  0  0
   38.4560    2.0714   38.7846 N   0  0  0  0  0  0  0  0  0  0  0  0
   39.0686    0.9225   38.3258 C   0  0  0  0  0  0  0  0  0  0  0  0
   38.2835   -0.2145   38.3048 C   0  0  0  0  0  0  0  0  0  0  0  0
   38.6323   -1.6121   37.9059 C   0  0  0  0  0  0  0  0  0  0  0  0
   37.5485   -2.2022   36.5652 S   0  0  0  0  0  0  0  0  0  0  0  0
   36.4953   -3.2515   37.5033 C   0  0  0  0  0  0  0  0  0  0  0  0
   36.2470   -4.5368   37.0462 N   0  0  0  0  0  0  0  0  0  0  0  0
   35.4077   -5.3787   37.7653 C   0  0  0  0  0  0  0  0  0  0  0  0
   35.1608   -6.6788   37.3185 O   0  0  0  0  0  0  0  0  0  0  0  0
   34.8300   -4.9316   38.8847 N   0  0  0  0  0  0  0  0  0  0  0  0
   35.1125   -3.6770   39.2557 C   0  0  0  0  0  0  0  0  0  0  0  0
   34.2876   -3.0774   40.7059 S   0  0  0  0  0  0  0  0  0  0  0  0
   32.5988   -3.2925   40.0873 C   0  0  0  0  0  0  0  0  0  0  0  0
   32.0980   -2.0745   39.3535 C   0  0  0  0  0  0  0  0  0  0  0  0
   31.1838   -2.1951   38.3002 C   0  0  0  0  0  0  0  0  0  0  0  0
   30.7000   -1.0591   37.6436 C   0  0  0  0  0  0  0  0  0  0  0  0
   31.1314    0.2226   38.0133 C   0  0  0  0  0  0  0  0  0  0  0  0
   32.0560    0.3379   39.0612 C   0  0  0  0  0  0  0  0  0  0  0  0
   32.5359   -0.7959   39.7215 C   0  0  0  0  0  0  0  0  0  0  0  0
   33.2541   -0.6737   40.5299 H   0  0  0  0  0  0  0  0  0  0  0  0
   32.4091    1.3172   39.3778 H   0  0  0  0  0  0  0  0  0  0  0  0
   30.6021    1.4793   37.3444 C   0  0  0  0  0  0  0  0  0  0  0  0
   29.6248    1.1172   36.2240 C   0  0  0  0  0  0  0  0  0  0  0  0
   30.1163    0.5507   35.4253 H   0  0  0  0  0  0  0  0  0  0  0  0
   28.7993    0.5060   36.6061 H   0  0  0  0  0  0  0  0  0  0  0  0
   29.1933    2.0206   35.7800 H   0  0  0  0  0  0  0  0  0  0  0  0
   31.7110    2.3964   36.8213 C   0  0  0  0  0  0  0  0  0  0  0  0
   32.2163    1.9757   35.9454 H   0  0  0  0  0  0  0  0  0  0  0  0
   32.4668    2.5781   37.5931 H   0  0  0  0  0  0  0  0  0  0  0  0
   31.2954    3.3655   36.5240 H   0  0  0  0  0  0  0  0  0  0  0  0
   30.0474    2.0597   38.0940 H   0  0  0  0  0  0  0  0  0  0  0  0
   29.9751   -1.1906   36.8441 H   0  0  0  0  0  0  0  0  0  0  0  0
   30.8331   -3.1759   37.9862 H   0  0  0  0  0  0  0  0  0  0  0  0
   31.9160   -3.5057   40.9188 H   0  0  0  0  0  0  0  0  0  0  0  0
   32.5685   -4.1666   39.4259 H   0  0  0  0  0  0  0  0  0  0  0  0
   35.9168   -2.8151   38.6221 N   0  0  0  0  0  0  0  0  0  0  0  0
   36.6808   -4.8525   36.1901 H   0  0  0  0  0  0  0  0  0  0  0  0
   39.6723   -1.6324   37.5594 H   0  0  0  0  0  0  0  0  0  0  0  0
   38.5485   -2.2943   38.7587 H   0  0  0  0  0  0  0  0  0  0  0  0
   40.1057    0.9724   38.0150 H   0  0  0  0  0  0  0  0  0  0  0  0
   36.2561    2.8069   39.6626 C   0  0  0  0  0  0  0  0  0  0  0  0
   35.3475    2.8423   39.0527 H   0  0  0  0  0  0  0  0  0  0  0  0
   36.7080    3.8038   39.6578 H   0  0  0  0  0  0  0  0  0  0  0  0
   35.9625    2.5595   40.6877 H   0  0  0  0  0  0  0  0  0  0  0  0
  1  2  1  0  0  0  0
  1  5  1  0  0  0  0
  2  3  2  0  0  0  0
  2 43  1  0  0  0  0
  3  4  1  0  0  0  0
  4  5  2  0  0  0  0
  4 42  1  0  0  0  0
  5  6  1  0  0  0  0
  6  7  1  0  0  0  0
  6 40  1  0  0  0  0
  6 41  1  0  0  0  0
  7  8  1  0  0  0  0
  8  9  1  0  0  0  0
  8 38  2  0  0  0  0
  9 10  1  0  0  0  0
  9 39  1  0  0  0  0
 10 11  2  0  0  0  0
 10 12  1  0  0  0  0
 12 13  2  0  0  0  0
 13 14  1  0  0  0  0
 13 38  1  0  0  0  0
 14 15  1  0  0  0  0
 15 16  1  0  0  0  0
 15 36  1  0  0  0  0
 15 37  1  0  0  0  0
 16 17  1  0  0  0  0
 16 21  2  0  0  0  0
 17 18  2  0  0  0  0
 17 35  1  0  0  0  0
 18 19  1  0  0  0  0
 18 34  1  0  0  0  0
 19 20  2  0  0  0  0
 19 24  1  0  0  0  0
 20 21  1  0  0  0  0
 20 23  1  0  0  0  0
 21 22  1  0  0  0  0
 24 25  1  0  0  0  0
 24 29  1  0  0  0  0
 24 33  1  0  0  0  0
 25 26  1  0  0  0  0
 25 27  1  0  0  0  0
 25 28  1  0  0  0  0
 29 30  1  0  0  0  0
 29 31  1  0  0  0  0
 29 32  1  0  0  0  0
 43 44  1  0  0  0  0
 43 45  1  0  0  0  0
 43 46  1  0  0  0  0
M  END
> <Gold.Goldscore.Fitness>
67.7756

> <Gold.Goldscore.External.HBond>
1.4847

> <Gold.Protein.ActiveResidues>
 GLU87   ILE88   VAL90   ASN91   ALA92   ASP94   ASN95   ARG98   ILE118  ASN120 
 LYS123  GLY124  ILE125  ILE141  PHE142  THR147  SER148  SER149  ASN150  TYR151 
 GLY160  GLY161  ARG162  ASN163  GLY164  TYR165  GLY166  ALA167  LYS168  LEU169 
 THR181  THR215  ILE217  ILE317  GLN376  LYS378  ILE33   TYR34   MG903  

> <Gold.Goldscore.Internal.HBond>
0.0

> <Gold.Goldscore.Internal.Torsion.Weighted>
-4.6232

> <Gold.Protein.RotatedTorsions>
[ 8833 2752 2751 2750 ] final  -92.65 input   60.00 | X-H torsion
[ 6906  969  968  965 ] final -179.89 input   59.99 | X-H torsion
[ 6910  975  974  971 ] final  -12.12 input   60.00 | X-H torsion
[ 6897  962  961  958 ] final   71.11 input   60.00 | X-H torsion
[ 9084 2997 2996 2994 ] final  -38.60 input   60.00 | X-H torsion
[ 7406 1497 1496 1493 ] final  170.76 input   60.00 | X-H torsion
[ 7140 1220 1219 1216 ] final  115.27 input   60.00 | X-H torsion
[ 6926  995  994  992 ] final   25.13 input   60.0

> <Gold.Goldscore.Constraint.Score>
0.0

> <Gold.Id.Protein>
1ZXM|1ZXM_protein|mol2

> <Gold.Protein.RotatedAtoms>
   40.6750    3.3830   41.8637 H   0  0  0  0  0  0  0  0  0  0  0  0  # atno 6897 bound_to 962 
   42.5663   -2.5035   38.2571 H   0  0  0  0  0  0  0  0  0  0  0  0  # atno 6906 bound_to 969 
   38.8111   -4.3840   40.0676 H   0  0  0  0  0  0  0  0  0  0  0  0  # atno 6910 bound_to 975 
   45.8911    1.1244   38.6740 H   0  0  0  0  0  0  0  0  0  0  0  0  # atno 6926 bound_to 995 
   28.0475    0.1168   43.0607 H   0  0  0  0  0  0  0  0  0  0  0  0  # atno 7140 bound_to 1220
   28.2838   -0.9017   41.0

> <Gold.Version>
5.3.0

> <Gold.Goldscore.Internal.Correction>
-0.0166

> <Gold.Goldscore.Internal.Vdw>
-1.3472

> <Gold.Goldscore.Internal.Vdw.Weighted>
-1.3472

> <Gold.Goldscore.External.HBond.Weighted>
1.4847

> <Gold.Goldscore.External.Vdw.Weighted>
72.2447

> <Gold.Goldscore.Internal.HBond.Weighted>
0.0

> <Gold.Goldscore.Hbonds>
donor molecule, donor type, donor heavy atom, donor atom, acceptor molecule, acceptor atom, score
      L1  H     1    27       P1   757  0.74

> <Gold.Goldscore.External.Vdw>
52.5416

> <Gold.Goldscore.Internal.Torsion>
-4.6232

> <Gold.Goldscore.Internal.Correction.Weighted>
-0.0166

> <Gold.Version>
5.3.0

> <Gold.Id.Protein>
1ZXM|1ZXM_protein|mol2

> <Gold.ASP.Fitness>
29.0050

> <Gold.ASP.ASP>
31.7020

> <Gold.ASP.Map>
-158.5100

> <Gold.ASP.DEClash>
1.7868

> <Gold.ASP.DEInternal>
0.9102

> <Gold.ASP.Internal.Correction>
0.1091

> <Gold.Protein.RotatedTorsions>
[ 8924 2752 2751 2750 ] final    8.13 input   60.00 | X-H torsion
[ 6908  969  968  965 ] final   12.35 input   59.99 | X-H torsion
[ 6912  975  974  971 ] final -163.28 input   60.00 | X-H torsion
[ 6899  962  961  958 ] final  136.21 input   60.00 | X-H torsion
[ 9165 2997 2996 2994 ] final -128.67 input   60.00 | X-H torsion
[ 7410 1497 1496 1493 ] final  -89.86 input   60.00 | X-H torsion
[ 7137 1220 1219 1216 ] final  -89.34 input   60.00 | X-H torsion
[ 6928  995  994  992 ] final   41.57 input   60.00 | X-H torsion

> <Gold.Protein.ActiveResidues>
 GLU87   ILE88   VAL90   ASN91   ALA92   ASP94   ASN95   ARG98   ILE118  ASN120 
 LYS123  GLY124  ILE125  ILE141  PHE142  THR147  SER148  SER149  ASN150  TYR151 
 GLY160  GLY161  ARG162  ASN163  GLY164  TYR165  GLY166  ALA167  LYS168  LEU169 
 THR181  THR215  ILE217  ILE317  GLN376  LYS378  ILE33   TYR34   MG903  

> <Gold.Protein.RotatedAtoms>
   40.3531    3.8988   42.6670 H   0  0  0  0  0  0  0  0  0  0  0  0  # atno 6899 bound_to 962 
   41.0985   -2.6783   39.3891 H   0  0  0  0  0  0  0  0  0  0  0  0  # atno 6908 bound_to 969 
   37.2379   -4.7519   40.8912 H   0  0  0  0  0  0  0  0  0  0  0  0  # atno 6912 bound_to 975 
   45.6377    1.1401   38.7590 H   0  0  0  0  0  0  0  0  0  0  0  0  # atno 6928 bound_to 995 
   27.6886   -0.1873   44.8284 H   0  0  0  0  0  0  0  0  0  0  0  0  # atno 7137 bound_to 1220
   27.9420    0.1871   41.9165 H   0  0  0  0  0  0  0  0  0  0  0  0  # atno 7410 bound_to 1497
   44.0410   -0.3768   29.3206 H   0  0  0  0  0  0  0  0  0  0  0  0  # atno 8924 bound_to 2752
   43.3646    0.6648   30.4183 H   0  0  0  0  0  0  0  0  0  0  0  0  # atno 8925 bound_to 2752
   43.6089   -0.9235   30.8244 H   0  0  0  0  0  0  0  0  0  0  0  0  # atno 8926 bound_to 2752
   33.8038   -4.0479   45.3845 H   0  0  0  0  0  0  0  0  0  0  0  0  # atno 9165 bound_to 2997
   42.6366   -3.1535   39.1511 LP  0  0  0  0  0  0  0  0  0  0  0  0  # atno 11896 bound_to 969 
   41.9230   -2.1299   38.0977 LP  0  0  0  0  0  0  0  0  0  0  0  0  # atno 11897 bound_to 969 
   38.4217   -5.6327   40.2049 LP  0  0  0  0  0  0  0  0  0  0  0  0  # atno 11898 bound_to 975 
   38.5270   -4.0035   40.2384 LP  0  0  0  0  0  0  0  0  0  0  0  0  # atno 11899 bound_to 975 
   41.4138    3.6030   41.4690 LP  0  0  0  0  0  0  0  0  0  0  0  0  # atno 11904 bound_to 962 
   41.6798    4.8287   42.5147 LP  0  0  0  0  0  0  0  0  0  0  0  0  # atno 11905 bound_to 962 
   34.6036   -5.3191   44.7579 LP  0  0  0  0  0  0  0  0  0  0  0  0  # atno 11912 bound_to 2997
   34.3821   -3.9696   43.8654 LP  0  0  0  0  0  0  0  0  0  0  0  0  # atno 11913 bound_to 2997
   28.0573   -1.1365   40.9770 LP  0  0  0  0  0  0  0  0  0  0  0  0  # atno 11922 bound_to 1497
   26.6420   -0.7681   41.7036 LP  0  0  0  0  0  0  0  0  0  0  0  0  # atno 11923 bound_to 1497
   28.4804    0.0686   43.4301 LP  0  0  0  0  0  0  0  0  0  0  0  0  # atno 11930 bound_to 1220
   26.8486    0.0089   43.4486 LP  0  0  0  0  0  0  0  0  0  0  0  0  # atno 11931 bound_to 1220

$$$$
****|SGG-4|sdf|1|dock98
  -GOLD-   9 72311523D 1   1.00000     0.00000

 46 48  0  0  0  0  0  0  0  0  1 V2000
   36.2805    0.2475   38.1907 S   0  0  0  0  0  0  0  0  0  0  0  0
   36.9069    1.4042   39.2958 C   0  0  0  0  0  0  0  0  0  0  0  0
   38.1897    1.2943   39.5644 N   0  0  0  0  0  0  0  0  0  0  0  0
   38.7215    0.2334   38.8590 C   0  0  0  0  0  0  0  0  0  0  0  0
   37.8388   -0.4599   38.0527 C   0  0  0  0  0  0  0  0  0  0  0  0
   38.0679   -1.6611   37.1932 C   0  0  0  0  0  0  0  0  0  0  0  0
   36.4956   -2.3124   36.5424 S   0  0  0  0  0  0  0  0  0  0  0  0
   36.0462   -3.3471   37.8907 C   0  0  0  0  0  0  0  0  0  0  0  0
   36.1577   -4.7219   37.7491 N   0  0  0  0  0  0  0  0  0  0  0  0
   35.7961   -5.5588   38.7976 C   0  0  0  0  0  0  0  0  0  0  0  0
   35.9157   -6.9443   38.6681 O   0  0  0  0  0  0  0  0  0  0  0  0
   35.3235   -5.0278   39.9296 N   0  0  0  0  0  0  0  0  0  0  0  0
   35.2377   -3.6933   39.9861 C   0  0  0  0  0  0  0  0  0  0  0  0
   34.5478   -3.0082   41.4686 S   0  0  0  0  0  0  0  0  0  0  0  0
   32.8107   -3.1639   40.9797 C   0  0  0  0  0  0  0  0  0  0  0  0
   32.3961   -2.1029   39.9921 C   0  0  0  0  0  0  0  0  0  0  0  0
   33.0138   -0.8467   39.9848 C   0  0  0  0  0  0  0  0  0  0  0  0
   32.6455    0.1225   39.0463 C   0  0  0  0  0  0  0  0  0  0  0  0
   31.6397   -0.1354   38.1044 C   0  0  0  0  0  0  0  0  0  0  0  0
   31.0156   -1.3909   38.1228 C   0  0  0  0  0  0  0  0  0  0  0  0
   31.3864   -2.3619   39.0564 C   0  0  0  0  0  0  0  0  0  0  0  0
   30.8823   -3.3263   39.0462 H   0  0  0  0  0  0  0  0  0  0  0  0
   30.2342   -1.6273   37.4035 H   0  0  0  0  0  0  0  0  0  0  0  0
   31.2377    0.8816   37.0503 C   0  0  0  0  0  0  0  0  0  0  0  0
   32.0337    2.1766   37.2260 C   0  0  0  0  0  0  0  0  0  0  0  0
   31.8185    2.6570   38.1869 H   0  0  0  0  0  0  0  0  0  0  0  0
   33.1115    1.9830   37.1848 H   0  0  0  0  0  0  0  0  0  0  0  0
   31.7923    2.8901   36.4310 H   0  0  0  0  0  0  0  0  0  0  0  0
   29.7337    1.1679   37.0315 C   0  0  0  0  0  0  0  0  0  0  0  0
   29.4113    1.7413   37.9072 H   0  0  0  0  0  0  0  0  0  0  0  0
   29.1571    0.2368   37.0058 H   0  0  0  0  0  0  0  0  0  0  0  0
   29.4680    1.7517   36.1433 H   0  0  0  0  0  0  0  0  0  0  0  0
   31.4874    0.4699   36.0630 H   0  0  0  0  0  0  0  0  0  0  0  0
   33.1619    1.0792   39.0578 H   0  0  0  0  0  0  0  0  0  0  0  0
   33.7946   -0.6138   40.7057 H   0  0  0  0  0  0  0  0  0  0  0  0
   32.1621   -3.0938   41.8616 H   0  0  0  0  0  0  0  0  0  0  0  0
   32.6475   -4.1594   40.5500 H   0  0  0  0  0  0  0  0  0  0  0  0
   35.5762   -2.8264   39.0243 N   0  0  0  0  0  0  0  0  0  0  0  0
   36.5031   -5.1059   36.8808 H   0  0  0  0  0  0  0  0  0  0  0  0
   38.7122   -1.3775   36.3526 H   0  0  0  0  0  0  0  0  0  0  0  0
   38.5766   -2.4522   37.7548 H   0  0  0  0  0  0  0  0  0  0  0  0
   39.7752    0.0068   38.9725 H   0  0  0  0  0  0  0  0  0  0  0  0
   36.0090    2.4292   39.8933 C   0  0  0  0  0  0  0  0  0  0  0  0
   35.5036    2.9984   39.1063 H   0  0  0  0  0  0  0  0  0  0  0  0
   36.5877    3.1308   40.5024 H   0  0  0  0  0  0  0  0  0  0  0  0
   35.2396    1.9702   40.5222 H   0  0  0  0  0  0  0  0  0  0  0  0
  1  2  1  0  0  0  0
  1  5  1  0  0  0  0
  2  3  2  0  0  0  0
  2 43  1  0  0  0  0
  3  4  1  0  0  0  0
  4  5  2  0  0  0  0
  4 42  1  0  0  0  0
  5  6  1  0  0  0  0
  6  7  1  0  0  0  0
  6 40  1  0  0  0  0
  6 41  1  0  0  0  0
  7  8  1  0  0  0  0
  8  9  1  0  0  0  0
  8 38  2  0  0  0  0
  9 10  1  0  0  0  0
  9 39  1  0  0  0  0
 10 11  2  0  0  0  0
 10 12  1  0  0  0  0
 12 13  2  0  0  0  0
 13 14  1  0  0  0  0
 13 38  1  0  0  0  0
 14 15  1  0  0  0  0
 15 16  1  0  0  0  0
 15 36  1  0  0  0  0
 15 37  1  0  0  0  0
 16 17  1  0  0  0  0
 16 21  2  0  0  0  0
 17 18  2  0  0  0  0
 17 35  1  0  0  0  0
 18 19  1  0  0  0  0
 18 34  1  0  0  0  0
 19 20  2  0  0  0  0
 19 24  1  0  0  0  0
 20 21  1  0  0  0  0
 20 23  1  0  0  0  0
 21 22  1  0  0  0  0
 24 25  1  0  0  0  0
 24 29  1  0  0  0  0
 24 33  1  0  0  0  0
 25 26  1  0  0  0  0
 25 27  1  0  0  0  0
 25 28  1  0  0  0  0
 29 30  1  0  0  0  0
 29 31  1  0  0  0  0
 29 32  1  0  0  0  0
 43 44  1  0  0  0  0
 43 45  1  0  0  0  0
 43 46  1  0  0  0  0
M  END
> <Gold.Goldscore.Fitness>
67.7756

> <Gold.Goldscore.External.HBond>
1.4847

> <Gold.Protein.ActiveResidues>
 GLU87   ILE88   VAL90   ASN91   ALA92   ASP94   ASN95   ARG98   ILE118  ASN120 
 LYS123  GLY124  ILE125  ILE141  PHE142  THR147  SER148  SER149  ASN150  TYR151 
 GLY160  GLY161  ARG162  ASN163  GLY164  TYR165  GLY166  ALA167  LYS168  LEU169 
 THR181  THR215  ILE217  ILE317  GLN376  LYS378  ILE33   TYR34   MG903  

> <Gold.Goldscore.Internal.HBond>
0.0

> <Gold.Goldscore.Internal.Torsion.Weighted>
-4.6232

> <Gold.Protein.RotatedTorsions>
[ 8833 2752 2751 2750 ] final  -92.65 input   60.00 | X-H torsion
[ 6906  969  968  965 ] final -179.89 input   59.99 | X-H torsion
[ 6910  975  974  971 ] final  -12.12 input   60.00 | X-H torsion
[ 6897  962  961  958 ] final   71.11 input   60.00 | X-H torsion
[ 9084 2997 2996 2994 ] final  -38.60 input   60.00 | X-H torsion
[ 7406 1497 1496 1493 ] final  170.76 input   60.00 | X-H torsion
[ 7140 1220 1219 1216 ] final  115.27 input   60.00 | X-H torsion
[ 6926  995  994  992 ] final   25.13 input   60.0

> <Gold.Goldscore.Constraint.Score>
0.0

> <Gold.Id.Protein>
1ZXM|1ZXM_protein|mol2

> <Gold.Protein.RotatedAtoms>
   40.6750    3.3830   41.8637 H   0  0  0  0  0  0  0  0  0  0  0  0  # atno 6897 bound_to 962 
   42.5663   -2.5035   38.2571 H   0  0  0  0  0  0  0  0  0  0  0  0  # atno 6906 bound_to 969 
   38.8111   -4.3840   40.0676 H   0  0  0  0  0  0  0  0  0  0  0  0  # atno 6910 bound_to 975 
   45.8911    1.1244   38.6740 H   0  0  0  0  0  0  0  0  0  0  0  0  # atno 6926 bound_to 995 
   28.0475    0.1168   43.0607 H   0  0  0  0  0  0  0  0  0  0  0  0  # atno 7140 bound_to 1220
   28.2838   -0.9017   41.0

> <Gold.Version>
5.3.0

> <Gold.Goldscore.Internal.Correction>
-0.0166

> <Gold.Goldscore.Internal.Vdw>
-1.3472

> <Gold.Goldscore.Internal.Vdw.Weighted>
-1.3472

> <Gold.Goldscore.External.HBond.Weighted>
1.4847

> <Gold.Goldscore.External.Vdw.Weighted>
72.2447

> <Gold.Goldscore.Internal.HBond.Weighted>
0.0

> <Gold.Goldscore.Hbonds>
donor molecule, donor type, donor heavy atom, donor atom, acceptor molecule, acceptor atom, score
      L1  H     1    27       P1   757  0.74

> <Gold.Goldscore.External.Vdw>
52.5416

> <Gold.Goldscore.Internal.Torsion>
-4.6232

> <Gold.Goldscore.Internal.Correction.Weighted>
-0.0166

> <Gold.Version>
5.3.0

> <Gold.Id.Protein>
1ZXM|1ZXM_protein|mol2

> <Gold.ASP.Fitness>
28.9695

> <Gold.ASP.ASP>
30.3660

> <Gold.ASP.Map>
-151.8300

> <Gold.ASP.DEClash>
0.2874

> <Gold.ASP.DEInternal>
1.1091

> <Gold.ASP.Internal.Correction>
0.1072

> <Gold.Protein.RotatedTorsions>
[ 8924 2752 2751 2750 ] final  -87.10 input   60.00 | X-H torsion
[ 6908  969  968  965 ] final  -52.95 input   59.99 | X-H torsion
[ 6912  975  974  971 ] final  169.30 input   60.00 | X-H torsion
[ 6899  962  961  958 ] final   73.33 input   60.00 | X-H torsion
[ 9165 2997 2996 2994 ] final  179.24 input   60.00 | X-H torsion
[ 7410 1497 1496 1493 ] final -122.72 input   60.00 | X-H torsion
[ 7137 1220 1219 1216 ] final   93.88 input   60.00 | X-H torsion
[ 6928  995  994  992 ] final  -72.40 input   60.00 | X-H torsion

> <Gold.Protein.ActiveResidues>
 GLU87   ILE88   VAL90   ASN91   ALA92   ASP94   ASN95   ARG98   ILE118  ASN120 
 LYS123  GLY124  ILE125  ILE141  PHE142  THR147  SER148  SER149  ASN150  TYR151 
 GLY160  GLY161  ARG162  ASN163  GLY164  TYR165  GLY166  ALA167  LYS168  LEU169 
 THR181  THR215  ILE217  ILE317  GLN376  LYS378  ILE33   TYR34   MG903  

> <Gold.Protein.RotatedAtoms>
   40.6499    3.3876   41.8895 H   0  0  0  0  0  0  0  0  0  0  0  0  # atno 6899 bound_to 962 
   41.9278   -3.1965   39.6422 H   0  0  0  0  0  0  0  0  0  0  0  0  # atno 6908 bound_to 969 
   37.3026   -5.1870   40.8325 H   0  0  0  0  0  0  0  0  0  0  0  0  # atno 6912 bound_to 975 
   46.9968    1.3805   39.5073 H   0  0  0  0  0  0  0  0  0  0  0  0  # atno 6928 bound_to 995 
   27.7091    0.1180   42.9821 H   0  0  0  0  0  0  0  0  0  0  0  0  # atno 7137 bound_to 1220
   28.3192   -0.0486   41.6290 H   0  0  0  0  0  0  0  0  0  0  0  0  # atno 7410 bound_to 1497
   43.7783   -1.1100   30.5003 H   0  0  0  0  0  0  0  0  0  0  0  0  # atno 8924 bound_to 2752
   43.9478    0.0227   29.3021 H   0  0  0  0  0  0  0  0  0  0  0  0  # atno 8925 bound_to 2752
   43.2883    0.4518   30.7610 H   0  0  0  0  0  0  0  0  0  0  0  0  # atno 8926 bound_to 2752
   34.0813   -4.8110   45.5133 H   0  0  0  0  0  0  0  0  0  0  0  0  # atno 9165 bound_to 2997
   42.6343   -2.5744   38.3148 LP  0  0  0  0  0  0  0  0  0  0  0  0  # atno 11896 bound_to 969 
   41.0903   -2.1871   38.6791 LP  0  0  0  0  0  0  0  0  0  0  0  0  # atno 11897 bound_to 969 
   38.7256   -5.3399   40.0581 LP  0  0  0  0  0  0  0  0  0  0  0  0  # atno 11898 bound_to 975 
   38.1581   -3.8582   40.4444 LP  0  0  0  0  0  0  0  0  0  0  0  0  # atno 11899 bound_to 975 
   41.9537    4.3569   41.7971 LP  0  0  0  0  0  0  0  0  0  0  0  0  # atno 11904 bound_to 962 
   40.8411    4.5897   42.9696 LP  0  0  0  0  0  0  0  0  0  0  0  0  # atno 11905 bound_to 962 
   34.7375   -4.9472   44.0304 LP  0  0  0  0  0  0  0  0  0  0  0  0  # atno 11912 bound_to 2997
   33.9689   -3.5730   44.4633 LP  0  0  0  0  0  0  0  0  0  0  0  0  # atno 11913 bound_to 2997
   27.5675   -1.3466   40.9980 LP  0  0  0  0  0  0  0  0  0  0  0  0  # atno 11922 bound_to 1497
   26.7520   -0.3206   41.9722 LP  0  0  0  0  0  0  0  0  0  0  0  0  # atno 11923 bound_to 1497
   26.8388   -0.1373   44.3331 LP  0  0  0  0  0  0  0  0  0  0  0  0  # atno 11930 bound_to 1220
   28.4696   -0.0926   44.4052 LP  0  0  0  0  0  0  0  0  0  0  0  0  # atno 11931 bound_to 1220

$$$$
****|SGG-4|sdf|1|dock49
  -GOLD-   9 72311473D 1   1.00000     0.00000

 46 48  0  0  0  0  0  0  0  0  1 V2000
   35.4070   -0.1872   38.1901 S   0  0  0  0  0  0  0  0  0  0  0  0
   36.9363    0.5617   38.4180 C   0  0  0  0  0  0  0  0  0  0  0  0
   37.9763   -0.1451   38.0323 N   0  0  0  0  0  0  0  0  0  0  0  0
   37.5506   -1.3558   37.5235 C   0  0  0  0  0  0  0  0  0  0  0  0
   36.1845   -1.5646   37.5222 C   0  0  0  0  0  0  0  0  0  0  0  0
   35.3983   -2.7571   37.0821 C   0  0  0  0  0  0  0  0  0  0  0  0
   36.1038   -4.2949   37.7585 S   0  0  0  0  0  0  0  0  0  0  0  0
   35.3791   -4.2503   39.3595 C   0  0  0  0  0  0  0  0  0  0  0  0
   35.8340   -5.1322   40.3280 N   0  0  0  0  0  0  0  0  0  0  0  0
   35.2666   -5.1226   41.5962 C   0  0  0  0  0  0  0  0  0  0  0  0
   35.7262   -5.9995   42.5814 O   0  0  0  0  0  0  0  0  0  0  0  0
   34.2700   -4.2732   41.8642 N   0  0  0  0  0  0  0  0  0  0  0  0
   33.8813   -3.4599   40.8748 C   0  0  0  0  0  0  0  0  0  0  0  0
   32.5154   -2.3855   41.2258 S   0  0  0  0  0  0  0  0  0  0  0  0
   31.5227   -2.8331   39.7784 C   0  0  0  0  0  0  0  0  0  0  0  0
   31.1729   -1.6361   38.9313 C   0  0  0  0  0  0  0  0  0  0  0  0
   30.2697   -1.7474   37.8675 C   0  0  0  0  0  0  0  0  0  0  0  0
   29.9264   -0.6267   37.1046 C   0  0  0  0  0  0  0  0  0  0  0  0
   30.4905    0.6276   37.3766 C   0  0  0  0  0  0  0  0  0  0  0  0
   31.4035    0.7321   38.4357 C   0  0  0  0  0  0  0  0  0  0  0  0
   31.7432   -0.3856   39.2019 C   0  0  0  0  0  0  0  0  0  0  0  0
   32.4560   -0.2727   40.0164 H   0  0  0  0  0  0  0  0  0  0  0  0
   31.8573    1.6909   38.6780 H   0  0  0  0  0  0  0  0  0  0  0  0
   30.1156    1.8716   36.5900 C   0  0  0  0  0  0  0  0  0  0  0  0
   29.0284    1.5473   35.5632 C   0  0  0  0  0  0  0  0  0  0  0  0
   29.3796    0.8282   34.8150 H   0  0  0  0  0  0  0  0  0  0  0  0
   28.1456    1.1172   36.0496 H   0  0  0  0  0  0  0  0  0  0  0  0
   28.7108    2.4536   35.0367 H   0  0  0  0  0  0  0  0  0  0  0  0
   31.3153    2.5428   35.9157 C   0  0  0  0  0  0  0  0  0  0  0  0
   31.6973    1.9563   35.0734 H   0  0  0  0  0  0  0  0  0  0  0  0
   32.1356    2.6869   36.6272 H   0  0  0  0  0  0  0  0  0  0  0  0
   31.0322    3.5270   35.5263 H   0  0  0  0  0  0  0  0  0  0  0  0
   29.7010    2.6091   37.2907 H   0  0  0  0  0  0  0  0  0  0  0  0
   29.2056   -0.7474   36.2997 H   0  0  0  0  0  0  0  0  0  0  0  0
   29.8181   -2.7076   37.6279 H   0  0  0  0  0  0  0  0  0  0  0  0
   30.5930   -3.3222   40.0943 H   0  0  0  0  0  0  0  0  0  0  0  0
   32.0742   -3.5673   39.1792 H   0  0  0  0  0  0  0  0  0  0  0  0
   34.3863   -3.4049   39.6365 N   0  0  0  0  0  0  0  0  0  0  0  0
   36.5782   -5.7773   40.1028 H   0  0  0  0  0  0  0  0  0  0  0  0
   34.3662   -2.6516   37.4367 H   0  0  0  0  0  0  0  0  0  0  0  0
   35.3730   -2.8268   35.9892 H   0  0  0  0  0  0  0  0  0  0  0  0
   38.2913   -2.0595   37.1618 H   0  0  0  0  0  0  0  0  0  0  0  0
   37.0218    1.9141   39.0324 C   0  0  0  0  0  0  0  0  0  0  0  0
   36.4111    2.6276   38.4696 H   0  0  0  0  0  0  0  0  0  0  0  0
   38.0569    2.2699   39.0223 H   0  0  0  0  0  0  0  0  0  0  0  0
   36.6629    1.9078   40.0665 H   0  0  0  0  0  0  0  0  0  0  0  0
  1  2  1  0  0  0  0
  1  5  1  0  0  0  0
  2  3  2  0  0  0  0
  2 43  1  0  0  0  0
  3  4  1  0  0  0  0
  4  5  2  0  0  0  0
  4 42  1  0  0  0  0
  5  6  1  0  0  0  0
  6  7  1  0  0  0  0
  6 40  1  0  0  0  0
  6 41  1  0  0  0  0
  7  8  1  0  0  0  0
  8  9  1  0  0  0  0
  8 38  2  0  0  0  0
  9 10  1  0  0  0  0
  9 39  1  0  0  0  0
 10 11  2  0  0  0  0
 10 12  1  0  0  0  0
 12 13  2  0  0  0  0
 13 14  1  0  0  0  0
 13 38  1  0  0  0  0
 14 15  1  0  0  0  0
 15 16  1  0  0  0  0
 15 36  1  0  0  0  0
 15 37  1  0  0  0  0
 16 17  1  0  0  0  0
 16 21  2  0  0  0  0
 17 18  2  0  0  0  0
 17 35  1  0  0  0  0
 18 19  1  0  0  0  0
 18 34  1  0  0  0  0
 19 20  2  0  0  0  0
 19 24  1  0  0  0  0
 20 21  1  0  0  0  0
 20 23  1  0  0  0  0
 21 22  1  0  0  0  0
 24 25  1  0  0  0  0
 24 29  1  0  0  0  0
 24 33  1  0  0  0  0
 25 26  1  0  0  0  0
 25 27  1  0  0  0  0
 25 28  1  0  0  0  0
 29 30  1  0  0  0  0
 29 31  1  0  0  0  0
 29 32  1  0  0  0  0
 43 44  1  0  0  0  0
 43 45  1  0  0  0  0
 43 46  1  0  0  0  0
M  END
> <Gold.Goldscore.Fitness>
67.7756

> <Gold.Goldscore.External.HBond>
1.4847

> <Gold.Protein.ActiveResidues>
 GLU87   ILE88   VAL90   ASN91   ALA92   ASP94   ASN95   ARG98   ILE118  ASN120 
 LYS123  GLY124  ILE125  ILE141  PHE142  THR147  SER148  SER149  ASN150  TYR151 
 GLY160  GLY161  ARG162  ASN163  GLY164  TYR165  GLY166  ALA167  LYS168  LEU169 
 THR181  THR215  ILE217  ILE317  GLN376  LYS378  ILE33   TYR34   MG903  

> <Gold.Goldscore.Internal.HBond>
0.0

> <Gold.Goldscore.Internal.Torsion.Weighted>
-4.6232

> <Gold.Protein.RotatedTorsions>
[ 8833 2752 2751 2750 ] final  -92.65 input   60.00 | X-H torsion
[ 6906  969  968  965 ] final -179.89 input   59.99 | X-H torsion
[ 6910  975  974  971 ] final  -12.12 input   60.00 | X-H torsion
[ 6897  962  961  958 ] final   71.11 input   60.00 | X-H torsion
[ 9084 2997 2996 2994 ] final  -38.60 input   60.00 | X-H torsion
[ 7406 1497 1496 1493 ] final  170.76 input   60.00 | X-H torsion
[ 7140 1220 1219 1216 ] final  115.27 input   60.00 | X-H torsion
[ 6926  995  994  992 ] final   25.13 input   60.0

> <Gold.Goldscore.Constraint.Score>
0.0

> <Gold.Id.Protein>
1ZXM|1ZXM_protein|mol2

> <Gold.Protein.RotatedAtoms>
   40.6750    3.3830   41.8637 H   0  0  0  0  0  0  0  0  0  0  0  0  # atno 6897 bound_to 962 
   42.5663   -2.5035   38.2571 H   0  0  0  0  0  0  0  0  0  0  0  0  # atno 6906 bound_to 969 
   38.8111   -4.3840   40.0676 H   0  0  0  0  0  0  0  0  0  0  0  0  # atno 6910 bound_to 975 
   45.8911    1.1244   38.6740 H   0  0  0  0  0  0  0  0  0  0  0  0  # atno 6926 bound_to 995 
   28.0475    0.1168   43.0607 H   0  0  0  0  0  0  0  0  0  0  0  0  # atno 7140 bound_to 1220
   28.2838   -0.9017   41.0

> <Gold.Version>
5.3.0

> <Gold.Goldscore.Internal.Correction>
-0.0166

> <Gold.Goldscore.Internal.Vdw>
-1.3472

> <Gold.Goldscore.Internal.Vdw.Weighted>
-1.3472

> <Gold.Goldscore.External.HBond.Weighted>
1.4847

> <Gold.Goldscore.External.Vdw.Weighted>
72.2447

> <Gold.Goldscore.Internal.HBond.Weighted>
0.0

> <Gold.Goldscore.Hbonds>
donor molecule, donor type, donor heavy atom, donor atom, acceptor molecule, acceptor atom, score
      L1  H     1    27       P1   757  0.74

> <Gold.Goldscore.External.Vdw>
52.5416

> <Gold.Goldscore.Internal.Torsion>
-4.6232

> <Gold.Goldscore.Internal.Correction.Weighted>
-0.0166

> <Gold.Version>
5.3.0

> <Gold.Id.Protein>
1ZXM|1ZXM_protein|mol2

> <Gold.ASP.Fitness>
28.9402

> <Gold.ASP.ASP>
32.5620

> <Gold.ASP.Map>
-162.8100

> <Gold.ASP.DEClash>
2.8286

> <Gold.ASP.DEInternal>
0.7931

> <Gold.ASP.Internal.Correction>
0.1091

> <Gold.Protein.RotatedTorsions>
[ 8924 2752 2751 2750 ] final  163.53 input   60.00 | X-H torsion
[ 6908  969  968  965 ] final -174.74 input   59.99 | X-H torsion
[ 6912  975  974  971 ] final   94.27 input   60.00 | X-H torsion
[ 6899  962  961  958 ] final  -17.69 input   60.00 | X-H torsion
[ 9165 2997 2996 2994 ] final   64.87 input   60.00 | X-H torsion
[ 7410 1497 1496 1493 ] final  -48.96 input   60.00 | X-H torsion
[ 7137 1220 1219 1216 ] final   80.24 input   60.00 | X-H torsion
[ 6928  995  994  992 ] final    8.71 input   60.00 | X-H torsion

> <Gold.Protein.ActiveResidues>
 GLU87   ILE88   VAL90   ASN91   ALA92   ASP94   ASN95   ARG98   ILE118  ASN120 
 LYS123  GLY124  ILE125  ILE141  PHE142  THR147  SER148  SER149  ASN150  TYR151 
 GLY160  GLY161  ARG162  ASN163  GLY164  TYR165  GLY166  ALA167  LYS168  LEU169 
 THR181  THR215  ILE217  ILE317  GLN376  LYS378  ILE33   TYR34   MG903  

> <Gold.Protein.RotatedAtoms>
   41.7944    3.9882   41.5527 H   0  0  0  0  0  0  0  0  0  0  0  0  # atno 6899 bound_to 962 
   42.6144   -2.5551   38.3030 H   0  0  0  0  0  0  0  0  0  0  0  0  # atno 6908 bound_to 969 
   38.1795   -5.7176   40.3328 H   0  0  0  0  0  0  0  0  0  0  0  0  # atno 6912 bound_to 975 
   46.1582    1.1287   38.6616 H   0  0  0  0  0  0  0  0  0  0  0  0  # atno 6928 bound_to 995 
   27.4876    0.1077   42.9984 H   0  0  0  0  0  0  0  0  0  0  0  0  # atno 7137 bound_to 1220
   27.3147    0.1406   42.0953 H   0  0  0  0  0  0  0  0  0  0  0  0  # atno 7410 bound_to 1497
   43.2768    0.3198   30.8787 H   0  0  0  0  0  0  0  0  0  0  0  0  # atno 8924 bound_to 2752
   43.8466   -1.1403   30.3395 H   0  0  0  0  0  0  0  0  0  0  0  0  # atno 8925 bound_to 2752
   43.8909    0.1851   29.3451 H   0  0  0  0  0  0  0  0  0  0  0  0  # atno 8926 bound_to 2752
   34.7401   -5.0102   44.0981 H   0  0  0  0  0  0  0  0  0  0  0  0  # atno 9165 bound_to 2997
   41.0779   -2.1986   38.7032 LP  0  0  0  0  0  0  0  0  0  0  0  0  # atno 11896 bound_to 969 
   41.9552   -3.2089   39.6394 LP  0  0  0  0  0  0  0  0  0  0  0  0  # atno 11897 bound_to 969 
   38.7126   -4.1938   40.1284 LP  0  0  0  0  0  0  0  0  0  0  0  0  # atno 11898 bound_to 975 
   37.2880   -4.4699   40.8773 LP  0  0  0  0  0  0  0  0  0  0  0  0  # atno 11899 bound_to 975 
   41.2454    4.8018   42.8506 LP  0  0  0  0  0  0  0  0  0  0  0  0  # atno 11904 bound_to 962 
   40.3968    3.5400   42.2553 LP  0  0  0  0  0  0  0  0  0  0  0  0  # atno 11905 bound_to 962 
   34.0076   -3.5847   44.3800 LP  0  0  0  0  0  0  0  0  0  0  0  0  # atno 11912 bound_to 2997
   34.0353   -4.7349   45.5388 LP  0  0  0  0  0  0  0  0  0  0  0  0  # atno 11913 bound_to 2997
   28.4257   -0.6359   41.1951 LP  0  0  0  0  0  0  0  0  0  0  0  0  # atno 11922 bound_to 1497
   26.9054   -1.2219   41.3054 LP  0  0  0  0  0  0  0  0  0  0  0  0  # atno 11923 bound_to 1497
   26.9658   -0.1630   44.5158 LP  0  0  0  0  0  0  0  0  0  0  0  0  # atno 11930 bound_to 1220
   28.5656   -0.0565   44.2062 LP  0  0  0  0  0  0  0  0  0  0  0  0  # atno 11931 bound_to 1220

$$$$
****|SGG-4|sdf|1|dock19
  -GOLD-   9 72311453D 1   1.00000     0.00000

 46 48  0  0  0  0  0  0  0  0  1 V2000
   32.0592    1.1760   37.6862 S   0  0  0  0  0  0  0  0  0  0  0  0
   31.5877    2.4402   36.6227 C   0  0  0  0  0  0  0  0  0  0  0  0
   30.4649    2.2400   35.9676 N   0  0  0  0  0  0  0  0  0  0  0  0
   29.9353    1.0148   36.3195 C   0  0  0  0  0  0  0  0  0  0  0  0
   30.6583    0.2867   37.2453 C   0  0  0  0  0  0  0  0  0  0  0  0
   30.3949   -1.0704   37.8135 C   0  0  0  0  0  0  0  0  0  0  0  0
   30.6330   -1.0835   39.6199 S   0  0  0  0  0  0  0  0  0  0  0  0
   31.9931   -2.1935   39.7110 C   0  0  0  0  0  0  0  0  0  0  0  0
   32.5507   -2.4730   40.9494 N   0  0  0  0  0  0  0  0  0  0  0  0
   33.6343   -3.3376   41.0430 C   0  0  0  0  0  0  0  0  0  0  0  0
   34.1952   -3.6338   42.2874 O   0  0  0  0  0  0  0  0  0  0  0  0
   34.1427   -3.8773   39.9309 N   0  0  0  0  0  0  0  0  0  0  0  0
   33.5549   -3.5520   38.7732 C   0  0  0  0  0  0  0  0  0  0  0  0
   34.2815   -4.2238   37.3022 S   0  0  0  0  0  0  0  0  0  0  0  0
   35.9708   -4.3480   37.9438 C   0  0  0  0  0  0  0  0  0  0  0  0
   36.6474   -3.0042   38.0399 C   0  0  0  0  0  0  0  0  0  0  0  0
   37.1284   -2.3580   36.8950 C   0  0  0  0  0  0  0  0  0  0  0  0
   37.7279   -1.0980   36.9873 C   0  0  0  0  0  0  0  0  0  0  0  0
   37.8757   -0.4620   38.2280 C   0  0  0  0  0  0  0  0  0  0  0  0
   37.4030   -1.1181   39.3736 C   0  0  0  0  0  0  0  0  0  0  0  0
   36.7990   -2.3745   39.2819 C   0  0  0  0  0  0  0  0  0  0  0  0
   36.4435   -2.8588   40.1893 H   0  0  0  0  0  0  0  0  0  0  0  0
   37.4968   -0.6522   40.3523 H   0  0  0  0  0  0  0  0  0  0  0  0
   38.4917    0.9199   38.3611 C   0  0  0  0  0  0  0  0  0  0  0  0
   37.4595    1.9162   38.8933 C   0  0  0  0  0  0  0  0  0  0  0  0
   36.6209    2.0401   38.1992 H   0  0  0  0  0  0  0  0  0  0  0  0
   37.0502    1.5816   39.8533 H   0  0  0  0  0  0  0  0  0  0  0  0
   37.9156    2.8995   39.0498 H   0  0  0  0  0  0  0  0  0  0  0  0
   39.1162    1.4295   37.0594 C   0  0  0  0  0  0  0  0  0  0  0  0
   38.3591    1.6869   36.3110 H   0  0  0  0  0  0  0  0  0  0  0  0
   39.7816    0.6771   36.6223 H   0  0  0  0  0  0  0  0  0  0  0  0
   39.7082    2.3318   37.2483 H   0  0  0  0  0  0  0  0  0  0  0  0
   39.3072    0.8632   39.0949 H   0  0  0  0  0  0  0  0  0  0  0  0
   38.0706   -0.6177   36.0742 H   0  0  0  0  0  0  0  0  0  0  0  0
   37.0331   -2.8270   35.9180 H   0  0  0  0  0  0  0  0  0  0  0  0
   36.5735   -4.9982   37.2979 H   0  0  0  0  0  0  0  0  0  0  0  0
   35.9447   -4.8253   38.9307 H   0  0  0  0  0  0  0  0  0  0  0  0
   32.5052   -2.7383   38.6075 N   0  0  0  0  0  0  0  0  0  0  0  0
   32.1624   -2.0442   41.7777 H   0  0  0  0  0  0  0  0  0  0  0  0
   29.3602   -1.3543   37.5876 H   0  0  0  0  0  0  0  0  0  0  0  0
   31.0552   -1.8182   37.3612 H   0  0  0  0  0  0  0  0  0  0  0  0
   29.0051    0.6975   35.8627 H   0  0  0  0  0  0  0  0  0  0  0  0
   32.4399    3.6511   36.4774 C   0  0  0  0  0  0  0  0  0  0  0  0
   32.6087    4.1177   37.4534 H   0  0  0  0  0  0  0  0  0  0  0  0
   31.9487    4.3845   35.8302 H   0  0  0  0  0  0  0  0  0  0  0  0
   33.4170    3.4045   36.0500 H   0  0  0  0  0  0  0  0  0  0  0  0
  1  2  1  0  0  0  0
  1  5  1  0  0  0  0
  2  3  2  0  0  0  0
  2 43  1  0  0  0  0
  3  4  1  0  0  0  0
  4  5  2  0  0  0  0
  4 42  1  0  0  0  0
  5  6  1  0  0  0  0
  6  7  1  0  0  0  0
  6 40  1  0  0  0  0
  6 41  1  0  0  0  0
  7  8  1  0  0  0  0
  8  9  1  0  0  0  0
  8 38  2  0  0  0  0
  9 10  1  0  0  0  0
  9 39  1  0  0  0  0
 10 11  2  0  0  0  0
 10 12  1  0  0  0  0
 12 13  2  0  0  0  0
 13 14  1  0  0  0  0
 13 38  1  0  0  0  0
 14 15  1  0  0  0  0
 15 16  1  0  0  0  0
 15 36  1  0  0  0  0
 15 37  1  0  0  0  0
 16 17  1  0  0  0  0
 16 21  2  0  0  0  0
 17 18  2  0  0  0  0
 17 35  1  0  0  0  0
 18 19  1  0  0  0  0
 18 34  1  0  0  0  0
 19 20  2  0  0  0  0
 19 24  1  0  0  0  0
 20 21  1  0  0  0  0
 20 23  1  0  0  0  0
 21 22  1  0  0  0  0
 24 25  1  0  0  0  0
 24 29  1  0  0  0  0
 24 33  1  0  0  0  0
 25 26  1  0  0  0  0
 25 27  1  0  0  0  0
 25 28  1  0  0  0  0
 29 30  1  0  0  0  0
 29 31  1  0  0  0  0
 29 32  1  0  0  0  0
 43 44  1  0  0  0  0
 43 45  1  0  0  0  0
 43 46  1  0  0  0  0
M  END
> <Gold.Goldscore.Fitness>
67.7756

> <Gold.Goldscore.External.HBond>
1.4847

> <Gold.Protein.ActiveResidues>
 GLU87   ILE88   VAL90   ASN91   ALA92   ASP94   ASN95   ARG98   ILE118  ASN120 
 LYS123  GLY124  ILE125  ILE141  PHE142  THR147  SER148  SER149  ASN150  TYR151 
 GLY160  GLY161  ARG162  ASN163  GLY164  TYR165  GLY166  ALA167  LYS168  LEU169 
 THR181  THR215  ILE217  ILE317  GLN376  LYS378  ILE33   TYR34   MG903  

> <Gold.Goldscore.Internal.HBond>
0.0

> <Gold.Goldscore.Internal.Torsion.Weighted>
-4.6232

> <Gold.Protein.RotatedTorsions>
[ 8833 2752 2751 2750 ] final  -92.65 input   60.00 | X-H torsion
[ 6906  969  968  965 ] final -179.89 input   59.99 | X-H torsion
[ 6910  975  974  971 ] final  -12.12 input   60.00 | X-H torsion
[ 6897  962  961  958 ] final   71.11 input   60.00 | X-H torsion
[ 9084 2997 2996 2994 ] final  -38.60 input   60.00 | X-H torsion
[ 7406 1497 1496 1493 ] final  170.76 input   60.00 | X-H torsion
[ 7140 1220 1219 1216 ] final  115.27 input   60.00 | X-H torsion
[ 6926  995  994  992 ] final   25.13 input   60.0

> <Gold.Goldscore.Constraint.Score>
0.0

> <Gold.Id.Protein>
1ZXM|1ZXM_protein|mol2

> <Gold.Protein.RotatedAtoms>
   40.6750    3.3830   41.8637 H   0  0  0  0  0  0  0  0  0  0  0  0  # atno 6897 bound_to 962 
   42.5663   -2.5035   38.2571 H   0  0  0  0  0  0  0  0  0  0  0  0  # atno 6906 bound_to 969 
   38.8111   -4.3840   40.0676 H   0  0  0  0  0  0  0  0  0  0  0  0  # atno 6910 bound_to 975 
   45.8911    1.1244   38.6740 H   0  0  0  0  0  0  0  0  0  0  0  0  # atno 6926 bound_to 995 
   28.0475    0.1168   43.0607 H   0  0  0  0  0  0  0  0  0  0  0  0  # atno 7140 bound_to 1220
   28.2838   -0.9017   41.0

> <Gold.Version>
5.3.0

> <Gold.Goldscore.Internal.Correction>
-0.0166

> <Gold.Goldscore.Internal.Vdw>
-1.3472

> <Gold.Goldscore.Internal.Vdw.Weighted>
-1.3472

> <Gold.Goldscore.External.HBond.Weighted>
1.4847

> <Gold.Goldscore.External.Vdw.Weighted>
72.2447

> <Gold.Goldscore.Internal.HBond.Weighted>
0.0

> <Gold.Goldscore.Hbonds>
donor molecule, donor type, donor heavy atom, donor atom, acceptor molecule, acceptor atom, score
      L1  H     1    27       P1   757  0.74

> <Gold.Goldscore.External.Vdw>
52.5416

> <Gold.Goldscore.Internal.Torsion>
-4.6232

> <Gold.Goldscore.Internal.Correction.Weighted>
-0.0166

> <Gold.Version>
5.3.0

> <Gold.Id.Protein>
1ZXM|1ZXM_protein|mol2

> <Gold.ASP.Fitness>
28.8078

> <Gold.ASP.ASP>
30.2840

> <Gold.ASP.Map>
-151.4200

> <Gold.ASP.DEClash>
0.3443

> <Gold.ASP.DEInternal>
1.1320

> <Gold.ASP.Internal.Correction>
0.1091

> <Gold.Protein.RotatedTorsions>
[ 8924 2752 2751 2750 ] final -168.23 input   60.00 | X-H torsion
[ 6908  969  968  965 ] final    5.08 input   59.99 | X-H torsion
[ 6912  975  974  971 ] final -129.84 input   60.00 | X-H torsion
[ 6899  962  961  958 ] final   72.47 input   60.00 | X-H torsion
[ 9165 2997 2996 2994 ] final   -0.37 input   60.00 | X-H torsion
[ 7410 1497 1496 1493 ] final  144.21 input   60.00 | X-H torsion
[ 7137 1220 1219 1216 ] final  -27.39 input   60.00 | X-H torsion
[ 6928  995  994  992 ] final   77.81 input   60.00 | X-H torsion

> <Gold.Protein.ActiveResidues>
 GLU87   ILE88   VAL90   ASN91   ALA92   ASP94   ASN95   ARG98   ILE118  ASN120 
 LYS123  GLY124  ILE125  ILE141  PHE142  THR147  SER148  SER149  ASN150  TYR151 
 GLY160  GLY161  ARG162  ASN163  GLY164  TYR165  GLY166  ALA167  LYS168  LEU169 
 THR181  THR215  ILE217  ILE317  GLN376  LYS378  ILE33   TYR34   MG903  

> <Gold.Protein.RotatedAtoms>
   40.6595    3.3857   41.8795 H   0  0  0  0  0  0  0  0  0  0  0  0  # atno 6899 bound_to 962 
   41.1566   -2.7523   39.4614 H   0  0  0  0  0  0  0  0  0  0  0  0  # atno 6908 bound_to 969 
   37.4075   -4.2445   40.8283 H   0  0  0  0  0  0  0  0  0  0  0  0  # atno 6912 bound_to 975 
   45.2268    1.2365   39.1602 H   0  0  0  0  0  0  0  0  0  0  0  0  # atno 6928 bound_to 995 
   26.8545   -0.1370   44.3486 H   0  0  0  0  0  0  0  0  0  0  0  0  # atno 7137 bound_to 1220
   27.9731   -1.1851   40.9692 H   0  0  0  0  0  0  0  0  0  0  0  0  # atno 7410 bound_to 1497
   43.3117   -0.1055   31.0681 H   0  0  0  0  0  0  0  0  0  0  0  0  # atno 8924 bound_to 2752
   43.9935   -1.0666   29.9025 H   0  0  0  0  0  0  0  0  0  0  0  0  # atno 8925 bound_to 2752
   43.7091    0.5367   29.5928 H   0  0  0  0  0  0  0  0  0  0  0  0  # atno 8926 bound_to 2752
   34.4487   -4.0823   43.8281 H   0  0  0  0  0  0  0  0  0  0  0  0  # atno 9165 bound_to 2997
   42.6912   -3.1093   39.0545 LP  0  0  0  0  0  0  0  0  0  0  0  0  # atno 11896 bound_to 969 
   41.8099   -2.0996   38.1215 LP  0  0  0  0  0  0  0  0  0  0  0  0  # atno 11897 bound_to 969 
   37.9495   -5.7322   40.4527 LP  0  0  0  0  0  0  0  0  0  0  0  0  # atno 11898 bound_to 975 
   38.8285   -4.4151   40.0540 LP  0  0  0  0  0  0  0  0  0  0  0  0  # atno 11899 bound_to 975 
   41.9553    4.3674   41.8066 LP  0  0  0  0  0  0  0  0  0  0  0  0  # atno 11904 bound_to 962 
   40.8298    4.5812   42.9703 LP  0  0  0  0  0  0  0  0  0  0  0  0  # atno 11905 bound_to 962 
   33.7850   -3.9377   45.3068 LP  0  0  0  0  0  0  0  0  0  0  0  0  # atno 11912 bound_to 2997
   34.5514   -5.3163   44.8840 LP  0  0  0  0  0  0  0  0  0  0  0  0  # atno 11913 bound_to 2997
   26.6402   -0.6878   41.7590 LP  0  0  0  0  0  0  0  0  0  0  0  0  # atno 11922 bound_to 1497
   28.0278    0.1652   41.8756 LP  0  0  0  0  0  0  0  0  0  0  0  0  # atno 11923 bound_to 1497
   28.4806   -0.0894   44.3876 LP  0  0  0  0  0  0  0  0  0  0  0  0  # atno 11930 bound_to 1220
   27.6885    0.1163   42.9745 LP  0  0  0  0  0  0  0  0  0  0  0  0  # atno 11931 bound_to 1220

$$$$
****|SGG-4|sdf|1|dock73
  -GOLD-   9 72311493D 1   1.00000     0.00000

 46 48  0  0  0  0  0  0  0  0  1 V2000
   35.6781   -3.8631   38.7034 S   0  0  0  0  0  0  0  0  0  0  0  0
   35.8839   -5.5601   38.5326 C   0  0  0  0  0  0  0  0  0  0  0  0
   36.4186   -5.9544   37.3975 N   0  0  0  0  0  0  0  0  0  0  0  0
   36.6865   -4.8561   36.6053 C   0  0  0  0  0  0  0  0  0  0  0  0
   36.3555   -3.6270   37.1435 C   0  0  0  0  0  0  0  0  0  0  0  0
   36.4770   -2.2591   36.5537 C   0  0  0  0  0  0  0  0  0  0  0  0
   38.2179   -1.8435   36.2120 S   0  0  0  0  0  0  0  0  0  0  0  0
   38.3612   -0.4079   37.2164 C   0  0  0  0  0  0  0  0  0  0  0  0
   38.9183    0.7397   36.6729 N   0  0  0  0  0  0  0  0  0  0  0  0
   39.0527    1.8818   37.4526 C   0  0  0  0  0  0  0  0  0  0  0  0
   39.6022    3.0457   36.9103 O   0  0  0  0  0  0  0  0  0  0  0  0
   38.6601    1.8557   38.7300 N   0  0  0  0  0  0  0  0  0  0  0  0
   38.1403    0.7086   39.1834 C   0  0  0  0  0  0  0  0  0  0  0  0
   37.6854    0.6700   40.8965 S   0  0  0  0  0  0  0  0  0  0  0  0
   36.9534   -0.9867   40.8790 C   0  0  0  0  0  0  0  0  0  0  0  0
   35.5061   -0.9691   40.4572 C   0  0  0  0  0  0  0  0  0  0  0  0
   35.0520   -0.0723   39.4830 C   0  0  0  0  0  0  0  0  0  0  0  0
   33.7146   -0.0818   39.0744 C   0  0  0  0  0  0  0  0  0  0  0  0
   32.7964   -0.9762   39.6422 C   0  0  0  0  0  0  0  0  0  0  0  0
   33.2531   -1.8649   40.6260 C   0  0  0  0  0  0  0  0  0  0  0  0
   34.5901   -1.8601   41.0311 C   0  0  0  0  0  0  0  0  0  0  0  0
   34.9137   -2.5611   41.7980 H   0  0  0  0  0  0  0  0  0  0  0  0
   32.5693   -2.5760   41.0849 H   0  0  0  0  0  0  0  0  0  0  0  0
   31.3448   -1.0364   39.1992 C   0  0  0  0  0  0  0  0  0  0  0  0
   30.5775   -2.0738   40.0217 C   0  0  0  0  0  0  0  0  0  0  0  0
   30.9689   -3.0850   39.8647 H   0  0  0  0  0  0  0  0  0  0  0  0
   30.6456   -1.8531   41.0929 H   0  0  0  0  0  0  0  0  0  0  0  0
   29.5169   -2.0767   39.7485 H   0  0  0  0  0  0  0  0  0  0  0  0
   31.1826   -1.3048   37.7005 C   0  0  0  0  0  0  0  0  0  0  0  0
   31.4516   -2.3323   37.4333 H   0  0  0  0  0  0  0  0  0  0  0  0
   31.8087   -0.6269   37.1102 H   0  0  0  0  0  0  0  0  0  0  0  0
   30.1415   -1.1505   37.3962 H   0  0  0  0  0  0  0  0  0  0  0  0
   30.8866   -0.0565   39.3901 H   0  0  0  0  0  0  0  0  0  0  0  0
   33.4030    0.6153   38.3004 H   0  0  0  0  0  0  0  0  0  0  0  0
   35.7384    0.6375   39.0265 H   0  0  0  0  0  0  0  0  0  0  0  0
   37.0223   -1.4409   41.8751 H   0  0  0  0  0  0  0  0  0  0  0  0
   37.5325   -1.6269   40.2028 H   0  0  0  0  0  0  0  0  0  0  0  0
   37.9701   -0.4239   38.4907 N   0  0  0  0  0  0  0  0  0  0  0  0
   39.2230    0.7363   35.7096 H   0  0  0  0  0  0  0  0  0  0  0  0
   35.9113   -2.2265   35.6150 H   0  0  0  0  0  0  0  0  0  0  0  0
   36.0555   -1.5045   37.2266 H   0  0  0  0  0  0  0  0  0  0  0  0
   37.1303   -5.0123   35.6290 H   0  0  0  0  0  0  0  0  0  0  0  0
   35.4515   -6.4783   39.6206 C   0  0  0  0  0  0  0  0  0  0  0  0
   35.9332   -6.2039   40.5647 H   0  0  0  0  0  0  0  0  0  0  0  0
   35.7339   -7.5084   39.3813 H   0  0  0  0  0  0  0  0  0  0  0  0
   34.3682   -6.4376   39.7724 H   0  0  0  0  0  0  0  0  0  0  0  0
  1  2  1  0  0  0  0
  1  5  1  0  0  0  0
  2  3  2  0  0  0  0
  2 43  1  0  0  0  0
  3  4  1  0  0  0  0
  4  5  2  0  0  0  0
  4 42  1  0  0  0  0
  5  6  1  0  0  0  0
  6  7  1  0  0  0  0
  6 40  1  0  0  0  0
  6 41  1  0  0  0  0
  7  8  1  0  0  0  0
  8  9  1  0  0  0  0
  8 38  2  0  0  0  0
  9 10  1  0  0  0  0
  9 39  1  0  0  0  0
 10 11  2  0  0  0  0
 10 12  1  0  0  0  0
 12 13  2  0  0  0  0
 13 14  1  0  0  0  0
 13 38  1  0  0  0  0
 14 15  1  0  0  0  0
 15 16  1  0  0  0  0
 15 36  1  0  0  0  0
 15 37  1  0  0  0  0
 16 17  1  0  0  0  0
 16 21  2  0  0  0  0
 17 18  2  0  0  0  0
 17 35  1  0  0  0  0
 18 19  1  0  0  0  0
 18 34  1  0  0  0  0
 19 20  2  0  0  0  0
 19 24  1  0  0  0  0
 20 21  1  0  0  0  0
 20 23  1  0  0  0  0
 21 22  1  0  0  0  0
 24 25  1  0  0  0  0
 24 29  1  0  0  0  0
 24 33  1  0  0  0  0
 25 26  1  0  0  0  0
 25 27  1  0  0  0  0
 25 28  1  0  0  0  0
 29 30  1  0  0  0  0
 29 31  1  0  0  0  0
 29 32  1  0  0  0  0
 43 44  1  0  0  0  0
 43 45  1  0  0  0  0
 43 46  1  0  0  0  0
M  END
> <Gold.Goldscore.Fitness>
67.7756

> <Gold.Goldscore.External.HBond>
1.4847

> <Gold.Protein.ActiveResidues>
 GLU87   ILE88   VAL90   ASN91   ALA92   ASP94   ASN95   ARG98   ILE118  ASN120 
 LYS123  GLY124  ILE125  ILE141  PHE142  THR147  SER148  SER149  ASN150  TYR151 
 GLY160  GLY161  ARG162  ASN163  GLY164  TYR165  GLY166  ALA167  LYS168  LEU169 
 THR181  THR215  ILE217  ILE317  GLN376  LYS378  ILE33   TYR34   MG903  

> <Gold.Goldscore.Internal.HBond>
0.0

> <Gold.Goldscore.Internal.Torsion.Weighted>
-4.6232

> <Gold.Protein.RotatedTorsions>
[ 8833 2752 2751 2750 ] final  -92.65 input   60.00 | X-H torsion
[ 6906  969  968  965 ] final -179.89 input   59.99 | X-H torsion
[ 6910  975  974  971 ] final  -12.12 input   60.00 | X-H torsion
[ 6897  962  961  958 ] final   71.11 input   60.00 | X-H torsion
[ 9084 2997 2996 2994 ] final  -38.60 input   60.00 | X-H torsion
[ 7406 1497 1496 1493 ] final  170.76 input   60.00 | X-H torsion
[ 7140 1220 1219 1216 ] final  115.27 input   60.00 | X-H torsion
[ 6926  995  994  992 ] final   25.13 input   60.0

> <Gold.Goldscore.Constraint.Score>
0.0

> <Gold.Id.Protein>
1ZXM|1ZXM_protein|mol2

> <Gold.Protein.RotatedAtoms>
   40.6750    3.3830   41.8637 H   0  0  0  0  0  0  0  0  0  0  0  0  # atno 6897 bound_to 962 
   42.5663   -2.5035   38.2571 H   0  0  0  0  0  0  0  0  0  0  0  0  # atno 6906 bound_to 969 
   38.8111   -4.3840   40.0676 H   0  0  0  0  0  0  0  0  0  0  0  0  # atno 6910 bound_to 975 
   45.8911    1.1244   38.6740 H   0  0  0  0  0  0  0  0  0  0  0  0  # atno 6926 bound_to 995 
   28.0475    0.1168   43.0607 H   0  0  0  0  0  0  0  0  0  0  0  0  # atno 7140 bound_to 1220
   28.2838   -0.9017   41.0

> <Gold.Version>
5.3.0

> <Gold.Goldscore.Internal.Correction>
-0.0166

> <Gold.Goldscore.Internal.Vdw>
-1.3472

> <Gold.Goldscore.Internal.Vdw.Weighted>
-1.3472

> <Gold.Goldscore.External.HBond.Weighted>
1.4847

> <Gold.Goldscore.External.Vdw.Weighted>
72.2447

> <Gold.Goldscore.Internal.HBond.Weighted>
0.0

> <Gold.Goldscore.Hbonds>
donor molecule, donor type, donor heavy atom, donor atom, acceptor molecule, acceptor atom, score
      L1  H     1    27       P1   757  0.74

> <Gold.Goldscore.External.Vdw>
52.5416

> <Gold.Goldscore.Internal.Torsion>
-4.6232

> <Gold.Goldscore.Internal.Correction.Weighted>
-0.0166

> <Gold.Version>
5.3.0

> <Gold.Id.Protein>
1ZXM|1ZXM_protein|mol2

> <Gold.ASP.Fitness>
28.7411

> <Gold.ASP.ASP>
32.1820

> <Gold.ASP.Map>
-160.9100

> <Gold.ASP.DEClash>
2.5334

> <Gold.ASP.DEInternal>
0.9075

> <Gold.ASP.Internal.Correction>
0.1091

> <Gold.Protein.RotatedTorsions>
[ 8924 2752 2751 2750 ] final    8.24 input   60.00 | X-H torsion
[ 6908  969  968  965 ] final   62.39 input   59.99 | X-H torsion
[ 6912  975  974  971 ] final  -43.38 input   60.00 | X-H torsion
[ 6899  962  961  958 ] final -117.91 input   60.00 | X-H torsion
[ 9165 2997 2996 2994 ] final -116.26 input   60.00 | X-H torsion
[ 7410 1497 1496 1493 ] final  130.87 input   60.00 | X-H torsion
[ 7137 1220 1219 1216 ] final    6.96 input   60.00 | X-H torsion
[ 6928  995  994  992 ] final  122.04 input   60.00 | X-H torsion

> <Gold.Protein.ActiveResidues>
 GLU87   ILE88   VAL90   ASN91   ALA92   ASP94   ASN95   ARG98   ILE118  ASN120 
 LYS123  GLY124  ILE125  ILE141  PHE142  THR147  SER148  SER149  ASN150  TYR151 
 GLY160  GLY161  ARG162  ASN163  GLY164  TYR165  GLY166  ALA167  LYS168  LEU169 
 THR181  THR215  ILE217  ILE317  GLN376  LYS378  ILE33   TYR34   MG903  

> <Gold.Protein.RotatedAtoms>
   41.5119    4.8421   42.6729 H   0  0  0  0  0  0  0  0  0  0  0  0  # atno 6899 bound_to 962 
   41.0662   -2.2193   38.7445 H   0  0  0  0  0  0  0  0  0  0  0  0  # atno 6908 bound_to 969 
   38.5237   -4.0083   40.2426 H   0  0  0  0  0  0  0  0  0  0  0  0  # atno 6912 bound_to 975 
   45.1695    1.4178   39.8390 H   0  0  0  0  0  0  0  0  0  0  0  0  # atno 6928 bound_to 995 
   26.7410   -0.0528   43.8140 H   0  0  0  0  0  0  0  0  0  0  0  0  # atno 7137 bound_to 1220
   27.7782   -1.2813   40.9689 H   0  0  0  0  0  0  0  0  0  0  0  0  # atno 7410 bound_to 1497
   44.0407   -0.3749   29.3201 H   0  0  0  0  0  0  0  0  0  0  0  0  # atno 8924 bound_to 2752
   43.3640    0.6641   30.4201 H   0  0  0  0  0  0  0  0  0  0  0  0  # atno 8925 bound_to 2752
   43.6097   -0.9247   30.8231 H   0  0  0  0  0  0  0  0  0  0  0  0  # atno 8926 bound_to 2752
   33.7873   -3.8909   45.2579 H   0  0  0  0  0  0  0  0  0  0  0  0  # atno 9165 bound_to 2997
   41.9997   -3.2185   39.6267 LP  0  0  0  0  0  0  0  0  0  0  0  0  # atno 11896 bound_to 969 
   42.5925   -2.5271   38.2713 LP  0  0  0  0  0  0  0  0  0  0  0  0  # atno 11897 bound_to 969 
   37.2309   -4.7531   40.8922 LP  0  0  0  0  0  0  0  0  0  0  0  0  # atno 11898 bound_to 975 
   38.4229   -5.6320   40.2043 LP  0  0  0  0  0  0  0  0  0  0  0  0  # atno 11899 bound_to 975 
   40.3331    3.7325   42.5079 LP  0  0  0  0  0  0  0  0  0  0  0  0  # atno 11904 bound_to 962 
   41.5935    3.7493   41.4699 LP  0  0  0  0  0  0  0  0  0  0  0  0  # atno 11905 bound_to 962 
   34.5233   -5.3081   44.9448 LP  0  0  0  0  0  0  0  0  0  0  0  0  # atno 11912 bound_to 2997
   34.4791   -4.1386   43.8060 LP  0  0  0  0  0  0  0  0  0  0  0  0  # atno 11913 bound_to 2997
   26.6715   -0.5041   41.8740 LP  0  0  0  0  0  0  0  0  0  0  0  0  # atno 11922 bound_to 1497
   28.1929    0.0784   41.7609 LP  0  0  0  0  0  0  0  0  0  0  0  0  # atno 11923 bound_to 1497
   28.0660   -0.1638   44.7519 LP  0  0  0  0  0  0  0  0  0  0  0  0  # atno 11930 bound_to 1220
   28.2174    0.1059   43.1485 LP  0  0  0  0  0  0  0  0  0  0  0  0  # atno 11931 bound_to 1220

$$$$
****|SGG-4|sdf|1|dock35
  -GOLD-   9 72311463D 1   1.00000     0.00000

 46 48  0  0  0  0  0  0  0  0  1 V2000
   35.3042   -3.0810   40.2190 S   0  0  0  0  0  0  0  0  0  0  0  0
   33.6717   -3.5218   40.5226 C   0  0  0  0  0  0  0  0  0  0  0  0
   33.1576   -4.3997   39.6890 N   0  0  0  0  0  0  0  0  0  0  0  0
   34.1031   -4.7533   38.7473 C   0  0  0  0  0  0  0  0  0  0  0  0
   35.3368   -4.1429   38.8702 C   0  0  0  0  0  0  0  0  0  0  0  0
   36.5568   -4.2684   38.0158 C   0  0  0  0  0  0  0  0  0  0  0  0
   36.4771   -3.1400   36.5874 S   0  0  0  0  0  0  0  0  0  0  0  0
   37.5170   -1.8573   37.1905 C   0  0  0  0  0  0  0  0  0  0  0  0
   38.8564   -1.8534   36.8318 N   0  0  0  0  0  0  0  0  0  0  0  0
   39.6989   -0.8562   37.3073 C   0  0  0  0  0  0  0  0  0  0  0  0
   41.0469   -0.8378   36.9421 O   0  0  0  0  0  0  0  0  0  0  0  0
   39.2114    0.0816   38.1255 N   0  0  0  0  0  0  0  0  0  0  0  0
   37.9107    0.0049   38.4321 C   0  0  0  0  0  0  0  0  0  0  0  0
   37.2945    1.2169   39.5698 S   0  0  0  0  0  0  0  0  0  0  0  0
   35.9593    0.2006   40.2519 C   0  0  0  0  0  0  0  0  0  0  0  0
   34.6477    0.4276   39.5441 C   0  0  0  0  0  0  0  0  0  0  0  0
   33.4527   -0.0848   40.0629 C   0  0  0  0  0  0  0  0  0  0  0  0
   32.2355    0.1551   39.4175 C   0  0  0  0  0  0  0  0  0  0  0  0
   32.1864    0.8984   38.2298 C   0  0  0  0  0  0  0  0  0  0  0  0
   33.3872    1.3999   37.7075 C   0  0  0  0  0  0  0  0  0  0  0  0
   34.6032    1.1654   38.3542 C   0  0  0  0  0  0  0  0  0  0  0  0
   35.5184    1.5667   37.9232 H   0  0  0  0  0  0  0  0  0  0  0  0
   33.3861    1.9849   36.7901 H   0  0  0  0  0  0  0  0  0  0  0  0
   30.8790    1.2059   37.5206 C   0  0  0  0  0  0  0  0  0  0  0  0
   30.1857   -0.0892   37.0926 C   0  0  0  0  0  0  0  0  0  0  0  0
   30.7842   -0.6474   36.3642 H   0  0  0  0  0  0  0  0  0  0  0  0
   30.0132   -0.7447   37.9537 H   0  0  0  0  0  0  0  0  0  0  0  0
   29.2133    0.1249   36.6363 H   0  0  0  0  0  0  0  0  0  0  0  0
   31.0481    2.1504   36.3275 C   0  0  0  0  0  0  0  0  0  0  0  0
   31.5519    1.6653   35.4846 H   0  0  0  0  0  0  0  0  0  0  0  0
   31.6311    3.0349   36.6064 H   0  0  0  0  0  0  0  0  0  0  0  0
   30.0703    2.4920   35.9702 H   0  0  0  0  0  0  0  0  0  0  0  0
   30.2156    1.7186   38.2304 H   0  0  0  0  0  0  0  0  0  0  0  0
   31.3255   -0.2411   39.8612 H   0  0  0  0  0  0  0  0  0  0  0  0
   33.4576   -0.6695   40.9802 H   0  0  0  0  0  0  0  0  0  0  0  0
   35.8244    0.4200   41.3181 H   0  0  0  0  0  0  0  0  0  0  0  0
   36.2433   -0.8563   40.1838 H   0  0  0  0  0  0  0  0  0  0  0  0
   37.0390   -0.9165   38.0050 N   0  0  0  0  0  0  0  0  0  0  0  0
   39.2105   -2.5789   36.2242 H   0  0  0  0  0  0  0  0  0  0  0  0
   37.4384   -4.0198   38.6185 H   0  0  0  0  0  0  0  0  0  0  0  0
   36.6760   -5.2951   37.6532 H   0  0  0  0  0  0  0  0  0  0  0  0
   33.8343   -5.4720   37.9819 H   0  0  0  0  0  0  0  0  0  0  0  0
   32.9302   -2.9066   41.6563 C   0  0  0  0  0  0  0  0  0  0  0  0
   33.4707   -3.0641   42.5954 H   0  0  0  0  0  0  0  0  0  0  0  0
   31.9399   -3.3626   41.7531 H   0  0  0  0  0  0  0  0  0  0  0  0
   32.8078   -1.8278   41.5166 H   0  0  0  0  0  0  0  0  0  0  0  0
  1  2  1  0  0  0  0
  1  5  1  0  0  0  0
  2  3  2  0  0  0  0
  2 43  1  0  0  0  0
  3  4  1  0  0  0  0
  4  5  2  0  0  0  0
  4 42  1  0  0  0  0
  5  6  1  0  0  0  0
  6  7  1  0  0  0  0
  6 40  1  0  0  0  0
  6 41  1  0  0  0  0
  7  8  1  0  0  0  0
  8  9  1  0  0  0  0
  8 38  2  0  0  0  0
  9 10  1  0  0  0  0
  9 39  1  0  0  0  0
 10 11  2  0  0  0  0
 10 12  1  0  0  0  0
 12 13  2  0  0  0  0
 13 14  1  0  0  0  0
 13 38  1  0  0  0  0
 14 15  1  0  0  0  0
 15 16  1  0  0  0  0
 15 36  1  0  0  0  0
 15 37  1  0  0  0  0
 16 17  1  0  0  0  0
 16 21  2  0  0  0  0
 17 18  2  0  0  0  0
 17 35  1  0  0  0  0
 18 19  1  0  0  0  0
 18 34  1  0  0  0  0
 19 20  2  0  0  0  0
 19 24  1  0  0  0  0
 20 21  1  0  0  0  0
 20 23  1  0  0  0  0
 21 22  1  0  0  0  0
 24 25  1  0  0  0  0
 24 29  1  0  0  0  0
 24 33  1  0  0  0  0
 25 26  1  0  0  0  0
 25 27  1  0  0  0  0
 25 28  1  0  0  0  0
 29 30  1  0  0  0  0
 29 31  1  0  0  0  0
 29 32  1  0  0  0  0
 43 44  1  0  0  0  0
 43 45  1  0  0  0  0
 43 46  1  0  0  0  0
M  END
> <Gold.Goldscore.Fitness>
67.7756

> <Gold.Goldscore.External.HBond>
1.4847

> <Gold.Protein.ActiveResidues>
 GLU87   ILE88   VAL90   ASN91   ALA92   ASP94   ASN95   ARG98   ILE118  ASN120 
 LYS123  GLY124  ILE125  ILE141  PHE142  THR147  SER148  SER149  ASN150  TYR151 
 GLY160  GLY161  ARG162  ASN163  GLY164  TYR165  GLY166  ALA167  LYS168  LEU169 
 THR181  THR215  ILE217  ILE317  GLN376  LYS378  ILE33   TYR34   MG903  

> <Gold.Goldscore.Internal.HBond>
0.0

> <Gold.Goldscore.Internal.Torsion.Weighted>
-4.6232

> <Gold.Protein.RotatedTorsions>
[ 8833 2752 2751 2750 ] final  -92.65 input   60.00 | X-H torsion
[ 6906  969  968  965 ] final -179.89 input   59.99 | X-H torsion
[ 6910  975  974  971 ] final  -12.12 input   60.00 | X-H torsion
[ 6897  962  961  958 ] final   71.11 input   60.00 | X-H torsion
[ 9084 2997 2996 2994 ] final  -38.60 input   60.00 | X-H torsion
[ 7406 1497 1496 1493 ] final  170.76 input   60.00 | X-H torsion
[ 7140 1220 1219 1216 ] final  115.27 input   60.00 | X-H torsion
[ 6926  995  994  992 ] final   25.13 input   60.0

> <Gold.Goldscore.Constraint.Score>
0.0

> <Gold.Id.Protein>
1ZXM|1ZXM_protein|mol2

> <Gold.Protein.RotatedAtoms>
   40.6750    3.3830   41.8637 H   0  0  0  0  0  0  0  0  0  0  0  0  # atno 6897 bound_to 962 
   42.5663   -2.5035   38.2571 H   0  0  0  0  0  0  0  0  0  0  0  0  # atno 6906 bound_to 969 
   38.8111   -4.3840   40.0676 H   0  0  0  0  0  0  0  0  0  0  0  0  # atno 6910 bound_to 975 
   45.8911    1.1244   38.6740 H   0  0  0  0  0  0  0  0  0  0  0  0  # atno 6926 bound_to 995 
   28.0475    0.1168   43.0607 H   0  0  0  0  0  0  0  0  0  0  0  0  # atno 7140 bound_to 1220
   28.2838   -0.9017   41.0

> <Gold.Version>
5.3.0

> <Gold.Goldscore.Internal.Correction>
-0.0166

> <Gold.Goldscore.Internal.Vdw>
-1.3472

> <Gold.Goldscore.Internal.Vdw.Weighted>
-1.3472

> <Gold.Goldscore.External.HBond.Weighted>
1.4847

> <Gold.Goldscore.External.Vdw.Weighted>
72.2447

> <Gold.Goldscore.Internal.HBond.Weighted>
0.0

> <Gold.Goldscore.Hbonds>
donor molecule, donor type, donor heavy atom, donor atom, acceptor molecule, acceptor atom, score
      L1  H     1    27       P1   757  0.74

> <Gold.Goldscore.External.Vdw>
52.5416

> <Gold.Goldscore.Internal.Torsion>
-4.6232

> <Gold.Goldscore.Internal.Correction.Weighted>
-0.0166

> <Gold.Version>
5.3.0

> <Gold.Id.Protein>
1ZXM|1ZXM_protein|mol2

> <Gold.ASP.Fitness>
28.6582

> <Gold.ASP.ASP>
32.6300

> <Gold.ASP.Map>
-163.1500

> <Gold.ASP.DEClash>
2.3812

> <Gold.ASP.DEInternal>
1.5906

> <Gold.ASP.Internal.Correction>
0.1091

> <Gold.Protein.RotatedTorsions>
[ 8924 2752 2751 2750 ] final   92.66 input   60.00 | X-H torsion
[ 6908  969  968  965 ] final  128.24 input   59.99 | X-H torsion
[ 6912  975  974  971 ] final  -34.83 input   60.00 | X-H torsion
[ 6899  962  961  958 ] final -164.12 input   60.00 | X-H torsion
[ 9165 2997 2996 2994 ] final  -91.55 input   60.00 | X-H torsion
[ 7410 1497 1496 1493 ] final  142.29 input   60.00 | X-H torsion
[ 7137 1220 1219 1216 ] final  -11.45 input   60.00 | X-H torsion
[ 6928  995  994  992 ] final  -55.29 input   60.00 | X-H torsion

> <Gold.Protein.ActiveResidues>
 GLU87   ILE88   VAL90   ASN91   ALA92   ASP94   ASN95   ARG98   ILE118  ASN120 
 LYS123  GLY124  ILE125  ILE141  PHE142  THR147  SER148  SER149  ASN150  TYR151 
 GLY160  GLY161  ARG162  ASN163  GLY164  TYR165  GLY166  ALA167  LYS168  LEU169 
 THR181  THR215  ILE217  ILE317  GLN376  LYS378  ILE33   TYR34   MG903  

> <Gold.Protein.RotatedAtoms>
   40.8781    4.6092   42.9627 H   0  0  0  0  0  0  0  0  0  0  0  0  # atno 6899 bound_to 962 
   41.8599   -2.1137   38.1163 H   0  0  0  0  0  0  0  0  0  0  0  0  # atno 6908 bound_to 969 
   38.6201   -4.0919   40.1863 H   0  0  0  0  0  0  0  0  0  0  0  0  # atno 6912 bound_to 975 
   46.9410    1.3080   39.2442 H   0  0  0  0  0  0  0  0  0  0  0  0  # atno 6928 bound_to 995 
   26.7613   -0.1007   44.1090 H   0  0  0  0  0  0  0  0  0  0  0  0  # atno 7137 bound_to 1220
   27.9462   -1.2012   40.9673 H   0  0  0  0  0  0  0  0  0  0  0  0  # atno 7410 bound_to 1497
   43.5663    0.6853   29.8717 H   0  0  0  0  0  0  0  0  0  0  0  0  # atno 8924 bound_to 2752
   43.3938   -0.4425   31.0740 H   0  0  0  0  0  0  0  0  0  0  0  0  # atno 8925 bound_to 2752
   44.0542   -0.8782   29.6176 H   0  0  0  0  0  0  0  0  0  0  0  0  # atno 8926 bound_to 2752
   33.8203   -3.6613   44.9313 H   0  0  0  0  0  0  0  0  0  0  0  0  # atno 9165 bound_to 2997
   41.1238   -2.7226   39.4337 LP  0  0  0  0  0  0  0  0  0  0  0  0  # atno 11896 bound_to 969 
   42.6690   -3.1294   39.0969 LP  0  0  0  0  0  0  0  0  0  0  0  0  # atno 11897 bound_to 969 
   37.2490   -4.6138   40.8903 LP  0  0  0  0  0  0  0  0  0  0  0  0  # atno 11898 bound_to 975 
   38.3079   -5.6871   40.2630 LP  0  0  0  0  0  0  0  0  0  0  0  0  # atno 11899 bound_to 975 
   40.6171    3.3907   41.9163 LP  0  0  0  0  0  0  0  0  0  0  0  0  # atno 11904 bound_to 962 
   41.9478    4.3257   41.7697 LP  0  0  0  0  0  0  0  0  0  0  0  0  # atno 11905 bound_to 962 
   34.3310   -5.1686   45.2710 LP  0  0  0  0  0  0  0  0  0  0  0  0  # atno 11912 bound_to 2997
   34.6381   -4.5094   43.8088 LP  0  0  0  0  0  0  0  0  0  0  0  0  # atno 11913 bound_to 2997
   26.6417   -0.6615   41.7765 LP  0  0  0  0  0  0  0  0  0  0  0  0  # atno 11922 bound_to 1497
   28.0534    0.1550   41.8601 LP  0  0  0  0  0  0  0  0  0  0  0  0  # atno 11923 bound_to 1497
   28.3164   -0.1280   44.5873 LP  0  0  0  0  0  0  0  0  0  0  0  0  # atno 11930 bound_to 1220
   27.9466    0.1184   43.0160 LP  0  0  0  0  0  0  0  0  0  0  0  0  # atno 11931 bound_to 1220

$$$$
****|SGG-4|sdf|1|dock93
  -GOLD-   9 72311513D 1   1.00000     0.00000

 46 48  0  0  0  0  0  0  0  0  1 V2000
   35.0807   -0.8785   38.1391 S   0  0  0  0  0  0  0  0  0  0  0  0
   36.5533   -0.0766   38.5130 C   0  0  0  0  0  0  0  0  0  0  0  0
   37.6501   -0.7252   38.1870 N   0  0  0  0  0  0  0  0  0  0  0  0
   37.3188   -1.9323   37.6049 C   0  0  0  0  0  0  0  0  0  0  0  0
   35.9674   -2.1968   37.4882 C   0  0  0  0  0  0  0  0  0  0  0  0
   35.2708   -3.4032   36.9465 C   0  0  0  0  0  0  0  0  0  0  0  0
   35.8338   -4.9190   37.7865 S   0  0  0  0  0  0  0  0  0  0  0  0
   35.1771   -4.6076   39.3872 C   0  0  0  0  0  0  0  0  0  0  0  0
   35.7111   -5.2810   40.4753 N   0  0  0  0  0  0  0  0  0  0  0  0
   35.1987   -5.0595   41.7477 C   0  0  0  0  0  0  0  0  0  0  0  0
   35.7378   -5.7248   42.8511 O   0  0  0  0  0  0  0  0  0  0  0  0
   34.1785   -4.2108   41.9070 N   0  0  0  0  0  0  0  0  0  0  0  0
   33.7128   -3.6062   40.8074 C   0  0  0  0  0  0  0  0  0  0  0  0
   32.3177   -2.5342   41.0261 S   0  0  0  0  0  0  0  0  0  0  0  0
   31.5941   -2.7991   39.3869 C   0  0  0  0  0  0  0  0  0  0  0  0
   31.3152   -1.5038   38.6677 C   0  0  0  0  0  0  0  0  0  0  0  0
   31.8035   -0.2880   39.1608 C   0  0  0  0  0  0  0  0  0  0  0  0
   31.5669    0.9061   38.4726 C   0  0  0  0  0  0  0  0  0  0  0  0
   30.8225    0.9152   37.2846 C   0  0  0  0  0  0  0  0  0  0  0  0
   30.3254   -0.3034   36.8005 C   0  0  0  0  0  0  0  0  0  0  0  0
   30.5657   -1.4977   37.4843 C   0  0  0  0  0  0  0  0  0  0  0  0
   30.1653   -2.4270   37.0840 H   0  0  0  0  0  0  0  0  0  0  0  0
   29.7476   -0.3344   35.8791 H   0  0  0  0  0  0  0  0  0  0  0  0
   30.5744    2.1882   36.4943 C   0  0  0  0  0  0  0  0  0  0  0  0
   29.5441    1.9399   35.3905 C   0  0  0  0  0  0  0  0  0  0  0  0
   29.9047    1.2107   34.6566 H   0  0  0  0  0  0  0  0  0  0  0  0
   28.6067    1.5558   35.8085 H   0  0  0  0  0  0  0  0  0  0  0  0
   29.3159    2.8693   34.8581 H   0  0  0  0  0  0  0  0  0  0  0  0
   31.8542    2.7968   35.9145 C   0  0  0  0  0  0  0  0  0  0  0  0
   32.2595    2.1993   35.0909 H   0  0  0  0  0  0  0  0  0  0  0  0
   32.6302    2.8845   36.6826 H   0  0  0  0  0  0  0  0  0  0  0  0
   31.6553    3.8003   35.5224 H   0  0  0  0  0  0  0  0  0  0  0  0
   30.1551    2.9399   37.1767 H   0  0  0  0  0  0  0  0  0  0  0  0
   31.9797    1.8280   38.8749 H   0  0  0  0  0  0  0  0  0  0  0  0
   32.3807   -0.2607   40.0826 H   0  0  0  0  0  0  0  0  0  0  0  0
   30.6556   -3.3602   39.4742 H   0  0  0  0  0  0  0  0  0  0  0  0
   32.2746   -3.4190   38.7911 H   0  0  0  0  0  0  0  0  0  0  0  0
   34.1614   -3.7611   39.5560 N   0  0  0  0  0  0  0  0  0  0  0  0
   36.4723   -5.9300   40.3337 H   0  0  0  0  0  0  0  0  0  0  0  0
   34.1915   -3.2887   37.1019 H   0  0  0  0  0  0  0  0  0  0  0  0
   35.4466   -3.5056   35.8702 H   0  0  0  0  0  0  0  0  0  0  0  0
   38.1154   -2.5909   37.2792 H   0  0  0  0  0  0  0  0  0  0  0  0
   36.5313    1.2541   39.1781 C   0  0  0  0  0  0  0  0  0  0  0  0
   35.9356    1.9626   38.5935 H   0  0  0  0  0  0  0  0  0  0  0  0
   37.5474    1.6522   39.2623 H   0  0  0  0  0  0  0  0  0  0  0  0
   36.0938    1.1942   40.1797 H   0  0  0  0  0  0  0  0  0  0  0  0
  1  2  1  0  0  0  0
  1  5  1  0  0  0  0
  2  3  2  0  0  0  0
  2 43  1  0  0  0  0
  3  4  1  0  0  0  0
  4  5  2  0  0  0  0
  4 42  1  0  0  0  0
  5  6  1  0  0  0  0
  6  7  1  0  0  0  0
  6 40  1  0  0  0  0
  6 41  1  0  0  0  0
  7  8  1  0  0  0  0
  8  9  1  0  0  0  0
  8 38  2  0  0  0  0
  9 10  1  0  0  0  0
  9 39  1  0  0  0  0
 10 11  2  0  0  0  0
 10 12  1  0  0  0  0
 12 13  2  0  0  0  0
 13 14  1  0  0  0  0
 13 38  1  0  0  0  0
 14 15  1  0  0  0  0
 15 16  1  0  0  0  0
 15 36  1  0  0  0  0
 15 37  1  0  0  0  0
 16 17  1  0  0  0  0
 16 21  2  0  0  0  0
 17 18  2  0  0  0  0
 17 35  1  0  0  0  0
 18 19  1  0  0  0  0
 18 34  1  0  0  0  0
 19 20  2  0  0  0  0
 19 24  1  0  0  0  0
 20 21  1  0  0  0  0
 20 23  1  0  0  0  0
 21 22  1  0  0  0  0
 24 25  1  0  0  0  0
 24 29  1  0  0  0  0
 24 33  1  0  0  0  0
 25 26  1  0  0  0  0
 25 27  1  0  0  0  0
 25 28  1  0  0  0  0
 29 30  1  0  0  0  0
 29 31  1  0  0  0  0
 29 32  1  0  0  0  0
 43 44  1  0  0  0  0
 43 45  1  0  0  0  0
 43 46  1  0  0  0  0
M  END
> <Gold.Goldscore.Fitness>
67.7756

> <Gold.Goldscore.External.HBond>
1.4847

> <Gold.Protein.ActiveResidues>
 GLU87   ILE88   VAL90   ASN91   ALA92   ASP94   ASN95   ARG98   ILE118  ASN120 
 LYS123  GLY124  ILE125  ILE141  PHE142  THR147  SER148  SER149  ASN150  TYR151 
 GLY160  GLY161  ARG162  ASN163  GLY164  TYR165  GLY166  ALA167  LYS168  LEU169 
 THR181  THR215  ILE217  ILE317  GLN376  LYS378  ILE33   TYR34   MG903  

> <Gold.Goldscore.Internal.HBond>
0.0

> <Gold.Goldscore.Internal.Torsion.Weighted>
-4.6232

> <Gold.Protein.RotatedTorsions>
[ 8833 2752 2751 2750 ] final  -92.65 input   60.00 | X-H torsion
[ 6906  969  968  965 ] final -179.89 input   59.99 | X-H torsion
[ 6910  975  974  971 ] final  -12.12 input   60.00 | X-H torsion
[ 6897  962  961  958 ] final   71.11 input   60.00 | X-H torsion
[ 9084 2997 2996 2994 ] final  -38.60 input   60.00 | X-H torsion
[ 7406 1497 1496 1493 ] final  170.76 input   60.00 | X-H torsion
[ 7140 1220 1219 1216 ] final  115.27 input   60.00 | X-H torsion
[ 6926  995  994  992 ] final   25.13 input   60.0

> <Gold.Goldscore.Constraint.Score>
0.0

> <Gold.Id.Protein>
1ZXM|1ZXM_protein|mol2

> <Gold.Protein.RotatedAtoms>
   40.6750    3.3830   41.8637 H   0  0  0  0  0  0  0  0  0  0  0  0  # atno 6897 bound_to 962 
   42.5663   -2.5035   38.2571 H   0  0  0  0  0  0  0  0  0  0  0  0  # atno 6906 bound_to 969 
   38.8111   -4.3840   40.0676 H   0  0  0  0  0  0  0  0  0  0  0  0  # atno 6910 bound_to 975 
   45.8911    1.1244   38.6740 H   0  0  0  0  0  0  0  0  0  0  0  0  # atno 6926 bound_to 995 
   28.0475    0.1168   43.0607 H   0  0  0  0  0  0  0  0  0  0  0  0  # atno 7140 bound_to 1220
   28.2838   -0.9017   41.0

> <Gold.Version>
5.3.0

> <Gold.Goldscore.Internal.Correction>
-0.0166

> <Gold.Goldscore.Internal.Vdw>
-1.3472

> <Gold.Goldscore.Internal.Vdw.Weighted>
-1.3472

> <Gold.Goldscore.External.HBond.Weighted>
1.4847

> <Gold.Goldscore.External.Vdw.Weighted>
72.2447

> <Gold.Goldscore.Internal.HBond.Weighted>
0.0

> <Gold.Goldscore.Hbonds>
donor molecule, donor type, donor heavy atom, donor atom, acceptor molecule, acceptor atom, score
      L1  H     1    27       P1   757  0.74

> <Gold.Goldscore.External.Vdw>
52.5416

> <Gold.Goldscore.Internal.Torsion>
-4.6232

> <Gold.Goldscore.Internal.Correction.Weighted>
-0.0166

> <Gold.Version>
5.3.0

> <Gold.Id.Protein>
1ZXM|1ZXM_protein|mol2

> <Gold.ASP.Fitness>
28.6107

> <Gold.ASP.ASP>
31.4320

> <Gold.ASP.Map>
-157.1600

> <Gold.ASP.DEClash>
1.6253

> <Gold.ASP.DEInternal>
1.1960

> <Gold.ASP.Internal.Correction>
0.1072

> <Gold.Protein.RotatedTorsions>
[ 8924 2752 2751 2750 ] final  -82.90 input   60.00 | X-H torsion
[ 6908  969  968  965 ] final  -85.82 input   59.99 | X-H torsion
[ 6912  975  974  971 ] final  -89.87 input   60.00 | X-H torsion
[ 6899  962  961  958 ] final   62.03 input   60.00 | X-H torsion
[ 9165 2997 2996 2994 ] final   51.10 input   60.00 | X-H torsion
[ 7410 1497 1496 1493 ] final   25.65 input   60.00 | X-H torsion
[ 7137 1220 1219 1216 ] final  -22.04 input   60.00 | X-H torsion
[ 6928  995  994  992 ] final   13.73 input   60.00 | X-H torsion

> <Gold.Protein.ActiveResidues>
 GLU87   ILE88   VAL90   ASN91   ALA92   ASP94   ASN95   ARG98   ILE118  ASN120 
 LYS123  GLY124  ILE125  ILE141  PHE142  THR147  SER148  SER149  ASN150  TYR151 
 GLY160  GLY161  ARG162  ASN163  GLY164  TYR165  GLY166  ALA167  LYS168  LEU169 
 THR181  THR215  ILE217  ILE317  GLN376  LYS378  ILE33   TYR34   MG903  

> <Gold.Protein.RotatedAtoms>
   40.7844    3.3755   41.7643 H   0  0  0  0  0  0  0  0  0  0  0  0  # atno 6899 bound_to 962 
   42.4013   -3.2300   39.4071 H   0  0  0  0  0  0  0  0  0  0  0  0  # atno 6908 bound_to 969 
   37.8838   -3.8883   40.5924 H   0  0  0  0  0  0  0  0  0  0  0  0  # atno 6912 bound_to 975 
   46.0764    1.1252   38.6576 H   0  0  0  0  0  0  0  0  0  0  0  0  # atno 6928 bound_to 995 
   26.8157   -0.1256   44.2711 H   0  0  0  0  0  0  0  0  0  0  0  0  # atno 7137 bound_to 1220
   26.6455   -0.7053   41.7424 H   0  0  0  0  0  0  0  0  0  0  0  0  # atno 7410 bound_to 1497
   43.8059   -1.1257   30.4378 H   0  0  0  0  0  0  0  0  0  0  0  0  # atno 8924 bound_to 2752
   43.9263    0.0881   29.3155 H   0  0  0  0  0  0  0  0  0  0  0  0  # atno 8925 bound_to 2752
   43.2822    0.4021   30.8101 H   0  0  0  0  0  0  0  0  0  0  0  0  # atno 8926 bound_to 2752
   34.7226   -4.8370   43.9565 H   0  0  0  0  0  0  0  0  0  0  0  0  # atno 9165 bound_to 2997
   42.2518   -2.2692   38.1022 LP  0  0  0  0  0  0  0  0  0  0  0  0  # atno 11896 bound_to 969 
   40.9958   -2.4586   39.1285 LP  0  0  0  0  0  0  0  0  0  0  0  0  # atno 11897 bound_to 969 
   37.4462   -5.4488   40.7383 LP  0  0  0  0  0  0  0  0  0  0  0  0  # atno 11898 bound_to 975 
   38.8521   -5.0572   40.0058 LP  0  0  0  0  0  0  0  0  0  0  0  0  # atno 11899 bound_to 975 
   41.9602    4.4885   41.9278 LP  0  0  0  0  0  0  0  0  0  0  0  0  # atno 11904 bound_to 962 
   40.6991    4.4704   42.9650 LP  0  0  0  0  0  0  0  0  0  0  0  0  # atno 11905 bound_to 962 
   33.9179   -3.5709   44.5870 LP  0  0  0  0  0  0  0  0  0  0  0  0  # atno 11912 bound_to 2997
   34.1426   -4.9231   45.4745 LP  0  0  0  0  0  0  0  0  0  0  0  0  # atno 11913 bound_to 2997
   28.0082    0.1723   41.8870 LP  0  0  0  0  0  0  0  0  0  0  0  0  # atno 11922 bound_to 1497
   27.9968   -1.1781   40.9689 LP  0  0  0  0  0  0  0  0  0  0  0  0  # atno 11923 bound_to 1497
   28.4318   -0.1029   44.4596 LP  0  0  0  0  0  0  0  0  0  0  0  0  # atno 11930 bound_to 1220
   27.7763    0.1183   42.9805 LP  0  0  0  0  0  0  0  0  0  0  0  0  # atno 11931 bound_to 1220

$$$$
****|SGG-4|sdf|1|dock59
  -GOLD-   9 72311483D 1   1.00000     0.00000

 46 48  0  0  0  0  0  0  0  0  1 V2000
   35.8174   -5.6330   37.5390 S   0  0  0  0  0  0  0  0  0  0  0  0
   35.6806   -6.4286   39.0555 C   0  0  0  0  0  0  0  0  0  0  0  0
   35.4027   -5.6517   40.0797 N   0  0  0  0  0  0  0  0  0  0  0  0
   35.2886   -4.3441   39.6519 C   0  0  0  0  0  0  0  0  0  0  0  0
   35.4786   -4.1315   38.2996 C   0  0  0  0  0  0  0  0  0  0  0  0
   35.4607   -2.8572   37.5187 C   0  0  0  0  0  0  0  0  0  0  0  0
   36.6839   -2.8971   36.1687 S   0  0  0  0  0  0  0  0  0  0  0  0
   37.8647   -1.7770   36.8331 C   0  0  0  0  0  0  0  0  0  0  0  0
   39.0969   -1.6514   36.2097 N   0  0  0  0  0  0  0  0  0  0  0  0
   40.0496   -0.7814   36.7253 C   0  0  0  0  0  0  0  0  0  0  0  0
   41.2892   -0.6400   36.0974 O   0  0  0  0  0  0  0  0  0  0  0  0
   39.7743   -0.0866   37.8334 N   0  0  0  0  0  0  0  0  0  0  0  0
   38.5668   -0.2690   38.3814 C   0  0  0  0  0  0  0  0  0  0  0  0
   38.2416    0.6096   39.8865 S   0  0  0  0  0  0  0  0  0  0  0  0
   37.2976   -0.7078   40.6954 C   0  0  0  0  0  0  0  0  0  0  0  0
   35.8161   -0.5893   40.4424 C   0  0  0  0  0  0  0  0  0  0  0  0
   35.3154    0.3446   39.5276 C   0  0  0  0  0  0  0  0  0  0  0  0
   33.9425    0.4287   39.2751 C   0  0  0  0  0  0  0  0  0  0  0  0
   33.0367   -0.4070   39.9435 C   0  0  0  0  0  0  0  0  0  0  0  0
   33.5416   -1.3330   40.8675 C   0  0  0  0  0  0  0  0  0  0  0  0
   34.9134   -1.4217   41.1166 C   0  0  0  0  0  0  0  0  0  0  0  0
   35.2743   -2.1495   41.8406 H   0  0  0  0  0  0  0  0  0  0  0  0
   32.8682   -2.0006   41.4010 H   0  0  0  0  0  0  0  0  0  0  0  0
   31.5433   -0.3655   39.6697 C   0  0  0  0  0  0  0  0  0  0  0  0
   31.0388   -1.7470   39.2472 C   0  0  0  0  0  0  0  0  0  0  0  0
   31.4953   -2.0745   38.3065 H   0  0  0  0  0  0  0  0  0  0  0  0
   31.2711   -2.4993   40.0094 H   0  0  0  0  0  0  0  0  0  0  0  0
   29.9524   -1.7366   39.1089 H   0  0  0  0  0  0  0  0  0  0  0  0
   31.1488    0.6947   38.6380 C   0  0  0  0  0  0  0  0  0  0  0  0
   31.4677    0.4249   37.6255 H   0  0  0  0  0  0  0  0  0  0  0  0
   31.5913    1.6660   38.8843 H   0  0  0  0  0  0  0  0  0  0  0  0
   30.0604    0.8180   38.6152 H   0  0  0  0  0  0  0  0  0  0  0  0
   31.0304   -0.0961   40.6030 H   0  0  0  0  0  0  0  0  0  0  0  0
   33.5924    1.1519   38.5426 H   0  0  0  0  0  0  0  0  0  0  0  0
   35.9917    1.0107   38.9961 H   0  0  0  0  0  0  0  0  0  0  0  0
   37.4706   -0.6865   41.7783 H   0  0  0  0  0  0  0  0  0  0  0  0
   37.6614   -1.6791   40.3397 H   0  0  0  0  0  0  0  0  0  0  0  0
   37.5980   -1.0782   37.9365 N   0  0  0  0  0  0  0  0  0  0  0  0
   39.2927   -2.1957   35.3813 H   0  0  0  0  0  0  0  0  0  0  0  0
   34.4609   -2.7181   37.0906 H   0  0  0  0  0  0  0  0  0  0  0  0
   35.6717   -1.9992   38.1660 H   0  0  0  0  0  0  0  0  0  0  0  0
   35.0623   -3.5743   40.3804 H   0  0  0  0  0  0  0  0  0  0  0  0
   35.8903   -7.8986   39.1496 C   0  0  0  0  0  0  0  0  0  0  0  0
   35.2166   -8.4242   38.4650 H   0  0  0  0  0  0  0  0  0  0  0  0
   35.6817   -8.2466   40.1661 H   0  0  0  0  0  0  0  0  0  0  0  0
   36.9167   -8.1744   38.8878 H   0  0  0  0  0  0  0  0  0  0  0  0
  1  2  1  0  0  0  0
  1  5  1  0  0  0  0
  2  3  2  0  0  0  0
  2 43  1  0  0  0  0
  3  4  1  0  0  0  0
  4  5  2  0  0  0  0
  4 42  1  0  0  0  0
  5  6  1  0  0  0  0
  6  7  1  0  0  0  0
  6 40  1  0  0  0  0
  6 41  1  0  0  0  0
  7  8  1  0  0  0  0
  8  9  1  0  0  0  0
  8 38  2  0  0  0  0
  9 10  1  0  0  0  0
  9 39  1  0  0  0  0
 10 11  2  0  0  0  0
 10 12  1  0  0  0  0
 12 13  2  0  0  0  0
 13 14  1  0  0  0  0
 13 38  1  0  0  0  0
 14 15  1  0  0  0  0
 15 16  1  0  0  0  0
 15 36  1  0  0  0  0
 15 37  1  0  0  0  0
 16 17  1  0  0  0  0
 16 21  2  0  0  0  0
 17 18  2  0  0  0  0
 17 35  1  0  0  0  0
 18 19  1  0  0  0  0
 18 34  1  0  0  0  0
 19 20  2  0  0  0  0
 19 24  1  0  0  0  0
 20 21  1  0  0  0  0
 20 23  1  0  0  0  0
 21 22  1  0  0  0  0
 24 25  1  0  0  0  0
 24 29  1  0  0  0  0
 24 33  1  0  0  0  0
 25 26  1  0  0  0  0
 25 27  1  0  0  0  0
 25 28  1  0  0  0  0
 29 30  1  0  0  0  0
 29 31  1  0  0  0  0
 29 32  1  0  0  0  0
 43 44  1  0  0  0  0
 43 45  1  0  0  0  0
 43 46  1  0  0  0  0
M  END
> <Gold.Goldscore.Fitness>
67.7756

> <Gold.Goldscore.External.HBond>
1.4847

> <Gold.Protein.ActiveResidues>
 GLU87   ILE88   VAL90   ASN91   ALA92   ASP94   ASN95   ARG98   ILE118  ASN120 
 LYS123  GLY124  ILE125  ILE141  PHE142  THR147  SER148  SER149  ASN150  TYR151 
 GLY160  GLY161  ARG162  ASN163  GLY164  TYR165  GLY166  ALA167  LYS168  LEU169 
 THR181  THR215  ILE217  ILE317  GLN376  LYS378  ILE33   TYR34   MG903  

> <Gold.Goldscore.Internal.HBond>
0.0

> <Gold.Goldscore.Internal.Torsion.Weighted>
-4.6232

> <Gold.Protein.RotatedTorsions>
[ 8833 2752 2751 2750 ] final  -92.65 input   60.00 | X-H torsion
[ 6906  969  968  965 ] final -179.89 input   59.99 | X-H torsion
[ 6910  975  974  971 ] final  -12.12 input   60.00 | X-H torsion
[ 6897  962  961  958 ] final   71.11 input   60.00 | X-H torsion
[ 9084 2997 2996 2994 ] final  -38.60 input   60.00 | X-H torsion
[ 7406 1497 1496 1493 ] final  170.76 input   60.00 | X-H torsion
[ 7140 1220 1219 1216 ] final  115.27 input   60.00 | X-H torsion
[ 6926  995  994  992 ] final   25.13 input   60.0

> <Gold.Goldscore.Constraint.Score>
0.0

> <Gold.Id.Protein>
1ZXM|1ZXM_protein|mol2

> <Gold.Protein.RotatedAtoms>
   40.6750    3.3830   41.8637 H   0  0  0  0  0  0  0  0  0  0  0  0  # atno 6897 bound_to 962 
   42.5663   -2.5035   38.2571 H   0  0  0  0  0  0  0  0  0  0  0  0  # atno 6906 bound_to 969 
   38.8111   -4.3840   40.0676 H   0  0  0  0  0  0  0  0  0  0  0  0  # atno 6910 bound_to 975 
   45.8911    1.1244   38.6740 H   0  0  0  0  0  0  0  0  0  0  0  0  # atno 6926 bound_to 995 
   28.0475    0.1168   43.0607 H   0  0  0  0  0  0  0  0  0  0  0  0  # atno 7140 bound_to 1220
   28.2838   -0.9017   41.0

> <Gold.Version>
5.3.0

> <Gold.Goldscore.Internal.Correction>
-0.0166

> <Gold.Goldscore.Internal.Vdw>
-1.3472

> <Gold.Goldscore.Internal.Vdw.Weighted>
-1.3472

> <Gold.Goldscore.External.HBond.Weighted>
1.4847

> <Gold.Goldscore.External.Vdw.Weighted>
72.2447

> <Gold.Goldscore.Internal.HBond.Weighted>
0.0

> <Gold.Goldscore.Hbonds>
donor molecule, donor type, donor heavy atom, donor atom, acceptor molecule, acceptor atom, score
      L1  H     1    27       P1   757  0.74

> <Gold.Goldscore.External.Vdw>
52.5416

> <Gold.Goldscore.Internal.Torsion>
-4.6232

> <Gold.Goldscore.Internal.Correction.Weighted>
-0.0166

> <Gold.Version>
5.3.0

> <Gold.Id.Protein>
1ZXM|1ZXM_protein|mol2

> <Gold.ASP.Fitness>
28.5567

> <Gold.ASP.ASP>
31.7360

> <Gold.ASP.Map>
-158.6800

> <Gold.ASP.DEClash>
1.9082

> <Gold.ASP.DEInternal>
1.2711

> <Gold.ASP.Internal.Correction>
0.1091

> <Gold.Protein.RotatedTorsions>
[ 8924 2752 2751 2750 ] final -123.28 input   60.00 | X-H torsion
[ 6908  969  968  965 ] final -154.70 input   59.99 | X-H torsion
[ 6912  975  974  971 ] final -121.09 input   60.00 | X-H torsion
[ 6899  962  961  958 ] final  -23.09 input   60.00 | X-H torsion
[ 9165 2997 2996 2994 ] final  -79.79 input   60.00 | X-H torsion
[ 7410 1497 1496 1493 ] final  134.18 input   60.00 | X-H torsion
[ 7137 1220 1219 1216 ] final  152.36 input   60.00 | X-H torsion
[ 6928  995  994  992 ] final  132.97 input   60.00 | X-H torsion

> <Gold.Protein.ActiveResidues>
 GLU87   ILE88   VAL90   ASN91   ALA92   ASP94   ASN95   ARG98   ILE118  ASN120 
 LYS123  GLY124  ILE125  ILE141  PHE142  THR147  SER148  SER149  ASN150  TYR151 
 GLY160  GLY161  ARG162  ASN163  GLY164  TYR165  GLY166  ALA167  LYS168  LEU169 
 THR181  THR215  ILE217  ILE317  GLN376  LYS378  ILE33   TYR34   MG903  

> <Gold.Protein.RotatedAtoms>
   41.8373    4.0568   41.5878 H   0  0  0  0  0  0  0  0  0  0  0  0  # atno 6899 bound_to 962 
   42.7426   -2.7594   38.5219 H   0  0  0  0  0  0  0  0  0  0  0  0  # atno 6908 bound_to 969 
   37.4917   -4.1361   40.7891 H   0  0  0  0  0  0  0  0  0  0  0  0  # atno 6912 bound_to 975 
   45.2389    1.4624   39.9970 H   0  0  0  0  0  0  0  0  0  0  0  0  # atno 6928 bound_to 995 
   28.4886    0.0666   43.4577 H   0  0  0  0  0  0  0  0  0  0  0  0  # atno 7137 bound_to 1220
   27.8281   -1.2609   40.9661 H   0  0  0  0  0  0  0  0  0  0  0  0  # atno 7410 bound_to 1497
   43.5329   -0.7905   30.9372 H   0  0  0  0  0  0  0  0  0  0  0  0  # atno 8924 bound_to 2752
   44.0615   -0.5548   29.3841 H   0  0  0  0  0  0  0  0  0  0  0  0  # atno 8925 bound_to 2752
   43.4200    0.7099   30.2421 H   0  0  0  0  0  0  0  0  0  0  0  0  # atno 8926 bound_to 2752
   33.8655   -3.6007   44.7550 H   0  0  0  0  0  0  0  0  0  0  0  0  # atno 9165 bound_to 2997
   41.2580   -2.0971   38.4485 LP  0  0  0  0  0  0  0  0  0  0  0  0  # atno 11896 bound_to 969 
   41.6460   -3.1046   39.6736 LP  0  0  0  0  0  0  0  0  0  0  0  0  # atno 11897 bound_to 969 
   37.8255   -5.7060   40.5207 LP  0  0  0  0  0  0  0  0  0  0  0  0  # atno 11898 bound_to 975 
   38.8677   -4.5504   40.0255 LP  0  0  0  0  0  0  0  0  0  0  0  0  # atno 11899 bound_to 975 
   41.1688    4.7744   42.8863 LP  0  0  0  0  0  0  0  0  0  0  0  0  # atno 11904 bound_to 962 
   40.4301    3.4984   42.1843 LP  0  0  0  0  0  0  0  0  0  0  0  0  # atno 11905 bound_to 962 
   34.2327   -5.0530   45.3906 LP  0  0  0  0  0  0  0  0  0  0  0  0  # atno 11912 bound_to 2997
   34.6909   -4.6860   43.8668 LP  0  0  0  0  0  0  0  0  0  0  0  0  # atno 11913 bound_to 2997
   26.6592   -0.5497   41.8469 LP  0  0  0  0  0  0  0  0  0  0  0  0  # atno 11922 bound_to 1497
   28.1548    0.1034   41.7908 LP  0  0  0  0  0  0  0  0  0  0  0  0  # atno 11923 bound_to 1497
   26.8626    0.0134   43.4247 LP  0  0  0  0  0  0  0  0  0  0  0  0  # atno 11930 bound_to 1220
   27.6607   -0.1915   44.8346 LP  0  0  0  0  0  0  0  0  0  0  0  0  # atno 11931 bound_to 1220

$$$$
****|SGG-4|sdf|1|dock70
  -GOLD-   9 72311493D 1   1.00000     0.00000

 46 48  0  0  0  0  0  0  0  0  1 V2000
   35.4770   -3.2547   41.6515 S   0  0  0  0  0  0  0  0  0  0  0  0
   33.9114   -2.5542   41.5517 C   0  0  0  0  0  0  0  0  0  0  0  0
   33.8745   -1.3066   41.1371 N   0  0  0  0  0  0  0  0  0  0  0  0
   35.1571   -0.8659   40.8793 C   0  0  0  0  0  0  0  0  0  0  0  0
   36.1672   -1.7835   41.0974 C   0  0  0  0  0  0  0  0  0  0  0  0
   37.6471   -1.6311   40.9538 C   0  0  0  0  0  0  0  0  0  0  0  0
   38.1234    0.1266   40.8932 S   0  0  0  0  0  0  0  0  0  0  0  0
   38.2572    0.3165   39.1507 C   0  0  0  0  0  0  0  0  0  0  0  0
   38.6948    1.5283   38.6383 N   0  0  0  0  0  0  0  0  0  0  0  0
   38.7959    1.7043   37.2638 C   0  0  0  0  0  0  0  0  0  0  0  0
   39.2466    2.9177   36.7390 O   0  0  0  0  0  0  0  0  0  0  0  0
   38.4495    0.7055   36.4459 N   0  0  0  0  0  0  0  0  0  0  0  0
   38.0287   -0.4298   37.0164 C   0  0  0  0  0  0  0  0  0  0  0  0
   37.5109   -1.7213   35.9178 S   0  0  0  0  0  0  0  0  0  0  0  0
   36.8383   -2.8194   37.1916 C   0  0  0  0  0  0  0  0  0  0  0  0
   35.3995   -2.5071   37.5157 C   0  0  0  0  0  0  0  0  0  0  0  0
   34.9001   -1.2055   37.3887 C   0  0  0  0  0  0  0  0  0  0  0  0
   33.5568   -0.9284   37.6619 C   0  0  0  0  0  0  0  0  0  0  0  0
   32.6858   -1.9423   38.0845 C   0  0  0  0  0  0  0  0  0  0  0  0
   33.1931   -3.2424   38.2216 C   0  0  0  0  0  0  0  0  0  0  0  0
   34.5335   -3.5215   37.9438 C   0  0  0  0  0  0  0  0  0  0  0  0
   34.8977   -4.5403   38.0610 H   0  0  0  0  0  0  0  0  0  0  0  0
   32.5445   -4.0548   38.5429 H   0  0  0  0  0  0  0  0  0  0  0  0
   31.2143   -1.6836   38.3580 C   0  0  0  0  0  0  0  0  0  0  0  0
   30.7951   -0.3272   37.7873 C   0  0  0  0  0  0  0  0  0  0  0  0
   31.3278    0.4983   38.2722 H   0  0  0  0  0  0  0  0  0  0  0  0
   31.0038   -0.2724   36.7129 H   0  0  0  0  0  0  0  0  0  0  0  0
   29.7212   -0.1636   37.9272 H   0  0  0  0  0  0  0  0  0  0  0  0
   30.8503   -1.7835   39.8418 C   0  0  0  0  0  0  0  0  0  0  0  0
   31.2486   -0.9445   40.4224 H   0  0  0  0  0  0  0  0  0  0  0  0
   31.2361   -2.7107   40.2792 H   0  0  0  0  0  0  0  0  0  0  0  0
   29.7620   -1.7802   39.9683 H   0  0  0  0  0  0  0  0  0  0  0  0
   30.6281   -2.4562   37.8421 H   0  0  0  0  0  0  0  0  0  0  0  0
   33.1999    0.0903   37.5320 H   0  0  0  0  0  0  0  0  0  0  0  0
   35.5515   -0.3957   37.0674 H   0  0  0  0  0  0  0  0  0  0  0  0
   37.4301   -2.7381   38.1116 H   0  0  0  0  0  0  0  0  0  0  0  0
   36.9286   -3.8583   36.8527 H   0  0  0  0  0  0  0  0  0  0  0  0
   37.9163   -0.6749   38.3274 N   0  0  0  0  0  0  0  0  0  0  0  0
   38.9383    2.2770   39.2715 H   0  0  0  0  0  0  0  0  0  0  0  0
   38.1370   -2.1044   41.8129 H   0  0  0  0  0  0  0  0  0  0  0  0
   38.0049   -2.1291   40.0461 H   0  0  0  0  0  0  0  0  0  0  0  0
   35.2997    0.1497   40.5289 H   0  0  0  0  0  0  0  0  0  0  0  0
   32.7126   -3.3460   41.9384 C   0  0  0  0  0  0  0  0  0  0  0  0
   32.6696   -4.2773   41.3644 H   0  0  0  0  0  0  0  0  0  0  0  0
   31.8005   -2.7771   41.7326 H   0  0  0  0  0  0  0  0  0  0  0  0
   32.7309   -3.6076   43.0012 H   0  0  0  0  0  0  0  0  0  0  0  0
  1  2  1  0  0  0  0
  1  5  1  0  0  0  0
  2  3  2  0  0  0  0
  2 43  1  0  0  0  0
  3  4  1  0  0  0  0
  4  5  2  0  0  0  0
  4 42  1  0  0  0  0
  5  6  1  0  0  0  0
  6  7  1  0  0  0  0
  6 40  1  0  0  0  0
  6 41  1  0  0  0  0
  7  8  1  0  0  0  0
  8  9  1  0  0  0  0
  8 38  2  0  0  0  0
  9 10  1  0  0  0  0
  9 39  1  0  0  0  0
 10 11  2  0  0  0  0
 10 12  1  0  0  0  0
 12 13  2  0  0  0  0
 13 14  1  0  0  0  0
 13 38  1  0  0  0  0
 14 15  1  0  0  0  0
 15 16  1  0  0  0  0
 15 36  1  0  0  0  0
 15 37  1  0  0  0  0
 16 17  1  0  0  0  0
 16 21  2  0  0  0  0
 17 18  2  0  0  0  0
 17 35  1  0  0  0  0
 18 19  1  0  0  0  0
 18 34  1  0  0  0  0
 19 20  2  0  0  0  0
 19 24  1  0  0  0  0
 20 21  1  0  0  0  0
 20 23  1  0  0  0  0
 21 22  1  0  0  0  0
 24 25  1  0  0  0  0
 24 29  1  0  0  0  0
 24 33  1  0  0  0  0
 25 26  1  0  0  0  0
 25 27  1  0  0  0  0
 25 28  1  0  0  0  0
 29 30  1  0  0  0  0
 29 31  1  0  0  0  0
 29 32  1  0  0  0  0
 43 44  1  0  0  0  0
 43 45  1  0  0  0  0
 43 46  1  0  0  0  0
M  END
> <Gold.Goldscore.Fitness>
67.7756

> <Gold.Goldscore.External.HBond>
1.4847

> <Gold.Protein.ActiveResidues>
 GLU87   ILE88   VAL90   ASN91   ALA92   ASP94   ASN95   ARG98   ILE118  ASN120 
 LYS123  GLY124  ILE125  ILE141  PHE142  THR147  SER148  SER149  ASN150  TYR151 
 GLY160  GLY161  ARG162  ASN163  GLY164  TYR165  GLY166  ALA167  LYS168  LEU169 
 THR181  THR215  ILE217  ILE317  GLN376  LYS378  ILE33   TYR34   MG903  

> <Gold.Goldscore.Internal.HBond>
0.0

> <Gold.Goldscore.Internal.Torsion.Weighted>
-4.6232

> <Gold.Protein.RotatedTorsions>
[ 8833 2752 2751 2750 ] final  -92.65 input   60.00 | X-H torsion
[ 6906  969  968  965 ] final -179.89 input   59.99 | X-H torsion
[ 6910  975  974  971 ] final  -12.12 input   60.00 | X-H torsion
[ 6897  962  961  958 ] final   71.11 input   60.00 | X-H torsion
[ 9084 2997 2996 2994 ] final  -38.60 input   60.00 | X-H torsion
[ 7406 1497 1496 1493 ] final  170.76 input   60.00 | X-H torsion
[ 7140 1220 1219 1216 ] final  115.27 input   60.00 | X-H torsion
[ 6926  995  994  992 ] final   25.13 input   60.0

> <Gold.Goldscore.Constraint.Score>
0.0

> <Gold.Id.Protein>
1ZXM|1ZXM_protein|mol2

> <Gold.Protein.RotatedAtoms>
   40.6750    3.3830   41.8637 H   0  0  0  0  0  0  0  0  0  0  0  0  # atno 6897 bound_to 962 
   42.5663   -2.5035   38.2571 H   0  0  0  0  0  0  0  0  0  0  0  0  # atno 6906 bound_to 969 
   38.8111   -4.3840   40.0676 H   0  0  0  0  0  0  0  0  0  0  0  0  # atno 6910 bound_to 975 
   45.8911    1.1244   38.6740 H   0  0  0  0  0  0  0  0  0  0  0  0  # atno 6926 bound_to 995 
   28.0475    0.1168   43.0607 H   0  0  0  0  0  0  0  0  0  0  0  0  # atno 7140 bound_to 1220
   28.2838   -0.9017   41.0

> <Gold.Version>
5.3.0

> <Gold.Goldscore.Internal.Correction>
-0.0166

> <Gold.Goldscore.Internal.Vdw>
-1.3472

> <Gold.Goldscore.Internal.Vdw.Weighted>
-1.3472

> <Gold.Goldscore.External.HBond.Weighted>
1.4847

> <Gold.Goldscore.External.Vdw.Weighted>
72.2447

> <Gold.Goldscore.Internal.HBond.Weighted>
0.0

> <Gold.Goldscore.Hbonds>
donor molecule, donor type, donor heavy atom, donor atom, acceptor molecule, acceptor atom, score
      L1  H     1    27       P1   757  0.74

> <Gold.Goldscore.External.Vdw>
52.5416

> <Gold.Goldscore.Internal.Torsion>
-4.6232

> <Gold.Goldscore.Internal.Correction.Weighted>
-0.0166

> <Gold.Version>
5.3.0

> <Gold.Id.Protein>
1ZXM|1ZXM_protein|mol2

> <Gold.ASP.Fitness>
28.4516

> <Gold.ASP.ASP>
32.1800

> <Gold.ASP.Map>
-160.9000

> <Gold.ASP.DEClash>
2.4514

> <Gold.ASP.DEInternal>
1.2770

> <Gold.ASP.Internal.Correction>
0.1091

> <Gold.Protein.RotatedTorsions>
[ 8924 2752 2751 2750 ] final -130.25 input   60.00 | X-H torsion
[ 6908  969  968  965 ] final  118.33 input   59.99 | X-H torsion
[ 6912  975  974  971 ] final -129.46 input   60.00 | X-H torsion
[ 6899  962  961  958 ] final  -78.19 input   60.00 | X-H torsion
[ 9165 2997 2996 2994 ] final  -75.47 input   60.00 | X-H torsion
[ 7410 1497 1496 1493 ] final  -76.19 input   60.00 | X-H torsion
[ 7137 1220 1219 1216 ] final   16.61 input   60.00 | X-H torsion
[ 6928  995  994  992 ] final  178.02 input   60.00 | X-H torsion

> <Gold.Protein.ActiveResidues>
 GLU87   ILE88   VAL90   ASN91   ALA92   ASP94   ASN95   ARG98   ILE118  ASN120 
 LYS123  GLY124  ILE125  ILE141  PHE142  THR147  SER148  SER149  ASN150  TYR151 
 GLY160  GLY161  ARG162  ASN163  GLY164  TYR165  GLY166  ALA167  LYS168  LEU169 
 THR181  THR215  ILE217  ILE317  GLN376  LYS378  ILE33   TYR34   MG903  

> <Gold.Protein.RotatedAtoms>
   41.8896    4.6790   42.1878 H   0  0  0  0  0  0  0  0  0  0  0  0  # atno 6899 bound_to 962 
   41.7078   -2.0816   38.1609 H   0  0  0  0  0  0  0  0  0  0  0  0  # atno 6908 bound_to 969 
   37.4108   -4.2395   40.8268 H   0  0  0  0  0  0  0  0  0  0  0  0  # atno 6912 bound_to 975 
   45.7955    1.5949   40.4298 H   0  0  0  0  0  0  0  0  0  0  0  0  # atno 6928 bound_to 995 
   26.7687   -0.0266   43.6613 H   0  0  0  0  0  0  0  0  0  0  0  0  # atno 7137 bound_to 1220
   27.7392    0.2156   42.0040 H   0  0  0  0  0  0  0  0  0  0  0  0  # atno 7410 bound_to 1497
   43.4890   -0.6976   30.9918 H   0  0  0  0  0  0  0  0  0  0  0  0  # atno 8924 bound_to 2752
   44.0665   -0.6574   29.4387 H   0  0  0  0  0  0  0  0  0  0  0  0  # atno 8925 bound_to 2752
   43.4589    0.7196   30.1329 H   0  0  0  0  0  0  0  0  0  0  0  0  # atno 8926 bound_to 2752
   33.8864   -3.5872   44.6890 H   0  0  0  0  0  0  0  0  0  0  0  0  # atno 9165 bound_to 2997
   41.2156   -2.8227   39.5235 LP  0  0  0  0  0  0  0  0  0  0  0  0  # atno 11896 bound_to 969 
   42.7304   -3.0617   38.9621 LP  0  0  0  0  0  0  0  0  0  0  0  0  # atno 11897 bound_to 969 
   37.9441   -5.7315   40.4557 LP  0  0  0  0  0  0  0  0  0  0  0  0  # atno 11898 bound_to 975 
   38.8306   -4.4207   40.0526 LP  0  0  0  0  0  0  0  0  0  0  0  0  # atno 11899 bound_to 975 
   40.4912    4.2252   42.8854 LP  0  0  0  0  0  0  0  0  0  0  0  0  # atno 11904 bound_to 962 
   41.0550    3.4208   41.5809 LP  0  0  0  0  0  0  0  0  0  0  0  0  # atno 11905 bound_to 962 
   34.1967   -5.0039   45.4271 LP  0  0  0  0  0  0  0  0  0  0  0  0  # atno 11912 bound_to 2997
   34.7059   -4.7487   43.8967 LP  0  0  0  0  0  0  0  0  0  0  0  0  # atno 11913 bound_to 2997
   28.2207   -0.9896   41.0224 LP  0  0  0  0  0  0  0  0  0  0  0  0  # atno 11922 bound_to 1497
   26.6829   -0.9437   41.5700 LP  0  0  0  0  0  0  0  0  0  0  0  0  # atno 11923 bound_to 1497
   27.9170   -0.1776   44.8042 LP  0  0  0  0  0  0  0  0  0  0  0  0  # atno 11930 bound_to 1220
   28.3385    0.0934   43.2500 LP  0  0  0  0  0  0  0  0  0  0  0  0  # atno 11931 bound_to 1220

$$$$
****|SGG-4|sdf|1|dock8
  -GOLD-   9 72311443D 1   1.00000     0.00000

 46 48  0  0  0  0  0  0  0  0  1 V2000
   37.5002   -0.1509   37.3615 S   0  0  0  0  0  0  0  0  0  0  0  0
   39.1824    0.1760   37.2407 C   0  0  0  0  0  0  0  0  0  0  0  0
   39.5628    1.3568   37.6775 N   0  0  0  0  0  0  0  0  0  0  0  0
   38.4652    2.0557   38.1388 C   0  0  0  0  0  0  0  0  0  0  0  0
   37.2513    1.4009   38.0526 C   0  0  0  0  0  0  0  0  0  0  0  0
   35.8815    1.8701   38.4235 C   0  0  0  0  0  0  0  0  0  0  0  0
   35.5710    1.6472   40.2050 S   0  0  0  0  0  0  0  0  0  0  0  0
   35.9364   -0.0673   40.3365 C   0  0  0  0  0  0  0  0  0  0  0  0
   37.1883   -0.5194   39.9481 N   0  0  0  0  0  0  0  0  0  0  0  0
   37.4940   -1.8721   40.0318 C   0  0  0  0  0  0  0  0  0  0  0  0
   38.7564   -2.3350   39.6535 O   0  0  0  0  0  0  0  0  0  0  0  0
   36.5668   -2.7299   40.4688 N   0  0  0  0  0  0  0  0  0  0  0  0
   35.3801   -2.2177   40.8166 C   0  0  0  0  0  0  0  0  0  0  0  0
   34.1403   -3.3757   41.3315 S   0  0  0  0  0  0  0  0  0  0  0  0
   33.3991   -3.6255   39.6978 C   0  0  0  0  0  0  0  0  0  0  0  0
   32.7721   -2.3667   39.1545 C   0  0  0  0  0  0  0  0  0  0  0  0
   33.1509   -1.8551   37.9077 C   0  0  0  0  0  0  0  0  0  0  0  0
   32.5437   -0.7039   37.3961 C   0  0  0  0  0  0  0  0  0  0  0  0
   31.5560   -0.0279   38.1261 C   0  0  0  0  0  0  0  0  0  0  0  0
   31.1880   -0.5372   39.3796 C   0  0  0  0  0  0  0  0  0  0  0  0
   31.7900   -1.6902   39.8894 C   0  0  0  0  0  0  0  0  0  0  0  0
   31.4838   -2.0601   40.8660 H   0  0  0  0  0  0  0  0  0  0  0  0
   30.4217   -0.0409   39.9715 H   0  0  0  0  0  0  0  0  0  0  0  0
   30.8526    1.2056   37.5868 C   0  0  0  0  0  0  0  0  0  0  0  0
   29.9998    0.8448   36.3686 C   0  0  0  0  0  0  0  0  0  0  0  0
   30.6138    0.4773   35.5389 H   0  0  0  0  0  0  0  0  0  0  0  0
   29.2730    0.0630   36.6164 H   0  0  0  0  0  0  0  0  0  0  0  0
   29.4423    1.7183   36.0142 H   0  0  0  0  0  0  0  0  0  0  0  0
   31.8131    2.3511   37.2562 C   0  0  0  0  0  0  0  0  0  0  0  0
   32.4197    2.1389   36.3694 H   0  0  0  0  0  0  0  0  0  0  0  0
   32.4933    2.5468   38.0923 H   0  0  0  0  0  0  0  0  0  0  0  0
   31.2539    3.2718   37.0562 H   0  0  0  0  0  0  0  0  0  0  0  0
   30.1760    1.5831   38.3655 H   0  0  0  0  0  0  0  0  0  0  0  0
   32.8489   -0.3480   36.4151 H   0  0  0  0  0  0  0  0  0  0  0  0
   33.9176   -2.3538   37.3187 H   0  0  0  0  0  0  0  0  0  0  0  0
   32.6303   -4.4065   39.7470 H   0  0  0  0  0  0  0  0  0  0  0  0
   34.1693   -3.9883   39.0069 H   0  0  0  0  0  0  0  0  0  0  0  0
   35.0187   -0.9298   40.7735 N   0  0  0  0  0  0  0  0  0  0  0  0
   37.8716    0.1417   39.6063 H   0  0  0  0  0  0  0  0  0  0  0  0
   35.7926    2.9346   38.1760 H   0  0  0  0  0  0  0  0  0  0  0  0
   35.1162    1.3282   37.8574 H   0  0  0  0  0  0  0  0  0  0  0  0
   38.6105    3.0546   38.5333 H   0  0  0  0  0  0  0  0  0  0  0  0
   40.1004   -0.8382   36.6556 C   0  0  0  0  0  0  0  0  0  0  0  0
   40.0099   -1.7885   37.1917 H   0  0  0  0  0  0  0  0  0  0  0  0
   41.1384   -0.5001   36.7353 H   0  0  0  0  0  0  0  0  0  0  0  0
   39.8720   -1.0246   35.6014 H   0  0  0  0  0  0  0  0  0  0  0  0
  1  2  1  0  0  0  0
  1  5  1  0  0  0  0
  2  3  2  0  0  0  0
  2 43  1  0  0  0  0
  3  4  1  0  0  0  0
  4  5  2  0  0  0  0
  4 42  1  0  0  0  0
  5  6  1  0  0  0  0
  6  7  1  0  0  0  0
  6 40  1  0  0  0  0
  6 41  1  0  0  0  0
  7  8  1  0  0  0  0
  8  9  1  0  0  0  0
  8 38  2  0  0  0  0
  9 10  1  0  0  0  0
  9 39  1  0  0  0  0
 10 11  2  0  0  0  0
 10 12  1  0  0  0  0
 12 13  2  0  0  0  0
 13 14  1  0  0  0  0
 13 38  1  0  0  0  0
 14 15  1  0  0  0  0
 15 16  1  0  0  0  0
 15 36  1  0  0  0  0
 15 37  1  0  0  0  0
 16 17  1  0  0  0  0
 16 21  2  0  0  0  0
 17 18  2  0  0  0  0
 17 35  1  0  0  0  0
 18 19  1  0  0  0  0
 18 34  1  0  0  0  0
 19 20  2  0  0  0  0
 19 24  1  0  0  0  0
 20 21  1  0  0  0  0
 20 23  1  0  0  0  0
 21 22  1  0  0  0  0
 24 25  1  0  0  0  0
 24 29  1  0  0  0  0
 24 33  1  0  0  0  0
 25 26  1  0  0  0  0
 25 27  1  0  0  0  0
 25 28  1  0  0  0  0
 29 30  1  0  0  0  0
 29 31  1  0  0  0  0
 29 32  1  0  0  0  0
 43 44  1  0  0  0  0
 43 45  1  0  0  0  0
 43 46  1  0  0  0  0
M  END
> <Gold.Goldscore.Fitness>
67.7756

> <Gold.Goldscore.External.HBond>
1.4847

> <Gold.Protein.ActiveResidues>
 GLU87   ILE88   VAL90   ASN91   ALA92   ASP94   ASN95   ARG98   ILE118  ASN120 
 LYS123  GLY124  ILE125  ILE141  PHE142  THR147  SER148  SER149  ASN150  TYR151 
 GLY160  GLY161  ARG162  ASN163  GLY164  TYR165  GLY166  ALA167  LYS168  LEU169 
 THR181  THR215  ILE217  ILE317  GLN376  LYS378  ILE33   TYR34   MG903  

> <Gold.Goldscore.Internal.HBond>
0.0

> <Gold.Goldscore.Internal.Torsion.Weighted>
-4.6232

> <Gold.Protein.RotatedTorsions>
[ 8833 2752 2751 2750 ] final  -92.65 input   60.00 | X-H torsion
[ 6906  969  968  965 ] final -179.89 input   59.99 | X-H torsion
[ 6910  975  974  971 ] final  -12.12 input   60.00 | X-H torsion
[ 6897  962  961  958 ] final   71.11 input   60.00 | X-H torsion
[ 9084 2997 2996 2994 ] final  -38.60 input   60.00 | X-H torsion
[ 7406 1497 1496 1493 ] final  170.76 input   60.00 | X-H torsion
[ 7140 1220 1219 1216 ] final  115.27 input   60.00 | X-H torsion
[ 6926  995  994  992 ] final   25.13 input   60.0

> <Gold.Goldscore.Constraint.Score>
0.0

> <Gold.Id.Protein>
1ZXM|1ZXM_protein|mol2

> <Gold.Protein.RotatedAtoms>
   40.6750    3.3830   41.8637 H   0  0  0  0  0  0  0  0  0  0  0  0  # atno 6897 bound_to 962 
   42.5663   -2.5035   38.2571 H   0  0  0  0  0  0  0  0  0  0  0  0  # atno 6906 bound_to 969 
   38.8111   -4.3840   40.0676 H   0  0  0  0  0  0  0  0  0  0  0  0  # atno 6910 bound_to 975 
   45.8911    1.1244   38.6740 H   0  0  0  0  0  0  0  0  0  0  0  0  # atno 6926 bound_to 995 
   28.0475    0.1168   43.0607 H   0  0  0  0  0  0  0  0  0  0  0  0  # atno 7140 bound_to 1220
   28.2838   -0.9017   41.0

> <Gold.Version>
5.3.0

> <Gold.Goldscore.Internal.Correction>
-0.0166

> <Gold.Goldscore.Internal.Vdw>
-1.3472

> <Gold.Goldscore.Internal.Vdw.Weighted>
-1.3472

> <Gold.Goldscore.External.HBond.Weighted>
1.4847

> <Gold.Goldscore.External.Vdw.Weighted>
72.2447

> <Gold.Goldscore.Internal.HBond.Weighted>
0.0

> <Gold.Goldscore.Hbonds>
donor molecule, donor type, donor heavy atom, donor atom, acceptor molecule, acceptor atom, score
      L1  H     1    27       P1   757  0.74

> <Gold.Goldscore.External.Vdw>
52.5416

> <Gold.Goldscore.Internal.Torsion>
-4.6232

> <Gold.Goldscore.Internal.Correction.Weighted>
-0.0166

> <Gold.Version>
5.3.0

> <Gold.Id.Protein>
1ZXM|1ZXM_protein|mol2

> <Gold.ASP.Fitness>
28.1399

> <Gold.ASP.ASP>
32.5040

> <Gold.ASP.Map>
-162.5200

> <Gold.ASP.DEClash>
0.5851

> <Gold.ASP.DEInternal>
3.7790

> <Gold.ASP.Internal.Correction>
0.1091

> <Gold.Protein.RotatedTorsions>
[ 8924 2752 2751 2750 ] final  -85.95 input   60.00 | X-H torsion
[ 6908  969  968  965 ] final  104.50 input   59.99 | X-H torsion
[ 6912  975  974  971 ] final   37.01 input   60.00 | X-H torsion
[ 6899  962  961  958 ] final    1.01 input   60.00 | X-H torsion
[ 9165 2997 2996 2994 ] final  126.32 input   60.00 | X-H torsion
[ 7410 1497 1496 1493 ] final  -87.46 input   60.00 | X-H torsion
[ 7137 1220 1219 1216 ] final  117.33 input   60.00 | X-H torsion
[ 6928  995  994  992 ] final  145.24 input   60.00 | X-H torsion

> <Gold.Protein.ActiveResidues>
 GLU87   ILE88   VAL90   ASN91   ALA92   ASP94   ASN95   ARG98   ILE118  ASN120 
 LYS123  GLY124  ILE125  ILE141  PHE142  THR147  SER148  SER149  ASN150  TYR151 
 GLY160  GLY161  ARG162  ASN163  GLY164  TYR165  GLY166  ALA167  LYS168  LEU169 
 THR181  THR215  ILE217  ILE317  GLN376  LYS378  ILE33   TYR34   MG903  

> <Gold.Protein.RotatedAtoms>
   41.6043    3.7626   41.4784 H   0  0  0  0  0  0  0  0  0  0  0  0  # atno 6899 bound_to 962 
   41.5053   -2.0654   38.2588 H   0  0  0  0  0  0  0  0  0  0  0  0  # atno 6908 bound_to 969 
   38.8121   -5.1613   40.0242 H   0  0  0  0  0  0  0  0  0  0  0  0  # atno 6912 bound_to 975 
   45.3523    1.5083   40.1555 H   0  0  0  0  0  0  0  0  0  0  0  0  # atno 6928 bound_to 995 
   28.0780    0.1156   43.0748 H   0  0  0  0  0  0  0  0  0  0  0  0  # atno 7137 bound_to 1220
   27.9077    0.1953   41.9336 H   0  0  0  0  0  0  0  0  0  0  0  0  # atno 7410 bound_to 1497
   43.7859   -1.1147   30.4834 H   0  0  0  0  0  0  0  0  0  0  0  0  # atno 8924 bound_to 2752
   43.9421    0.0407   29.3053 H   0  0  0  0  0  0  0  0  0  0  0  0  # atno 8925 bound_to 2752
   43.2864    0.4386   30.7746 H   0  0  0  0  0  0  0  0  0  0  0  0  # atno 8926 bound_to 2752
   34.5052   -5.2939   44.9811 H   0  0  0  0  0  0  0  0  0  0  0  0  # atno 9165 bound_to 2997
   41.3765   -2.9534   39.6163 LP  0  0  0  0  0  0  0  0  0  0  0  0  # atno 11896 bound_to 969 
   42.7735   -2.9473   38.7708 LP  0  0  0  0  0  0  0  0  0  0  0  0  # atno 11897 bound_to 969 
   37.9801   -3.8612   40.5397 LP  0  0  0  0  0  0  0  0  0  0  0  0  # atno 11898 bound_to 975 
   37.3834   -5.3627   40.7768 LP  0  0  0  0  0  0  0  0  0  0  0  0  # atno 11899 bound_to 975 
   41.4996    4.8484   42.6859 LP  0  0  0  0  0  0  0  0  0  0  0  0  # atno 11904 bound_to 962 
   40.3341    3.7207   42.4948 LP  0  0  0  0  0  0  0  0  0  0  0  0  # atno 11905 bound_to 962 
   34.4982   -4.1759   43.7987 LP  0  0  0  0  0  0  0  0  0  0  0  0  # atno 11912 bound_to 2997
   33.7812   -3.8580   45.2310 LP  0  0  0  0  0  0  0  0  0  0  0  0  # atno 11913 bound_to 2997
   28.0883   -1.1128   40.9827 LP  0  0  0  0  0  0  0  0  0  0  0  0  # atno 11922 bound_to 1497
   26.6455   -0.8000   41.6806 LP  0  0  0  0  0  0  0  0  0  0  0  0  # atno 11923 bound_to 1497
   26.7330   -0.0809   43.9692 LP  0  0  0  0  0  0  0  0  0  0  0  0  # atno 11930 bound_to 1220
   28.2037   -0.1465   44.6758 LP  0  0  0  0  0  0  0  0  0  0  0  0  # atno 11931 bound_to 1220

$$$$
****|SGG-4|sdf|1|dock38
  -GOLD-   9 72311463D 1   1.00000     0.00000

 46 48  0  0  0  0  0  0  0  0  1 V2000
   36.1379   -7.3303   40.7604 S   0  0  0  0  0  0  0  0  0  0  0  0
   35.5880   -8.9577   40.7875 C   0  0  0  0  0  0  0  0  0  0  0  0
   35.6220   -9.5863   39.6327 N   0  0  0  0  0  0  0  0  0  0  0  0
   36.1111   -8.7394   38.6584 C   0  0  0  0  0  0  0  0  0  0  0  0
   36.4502   -7.4670   39.0777 C   0  0  0  0  0  0  0  0  0  0  0  0
   36.9691   -6.3062   38.2921 C   0  0  0  0  0  0  0  0  0  0  0  0
   35.6045   -5.3454   37.5609 S   0  0  0  0  0  0  0  0  0  0  0  0
   35.7743   -3.8677   38.4979 C   0  0  0  0  0  0  0  0  0  0  0  0
   37.0094   -3.2391   38.5437 N   0  0  0  0  0  0  0  0  0  0  0  0
   37.1691   -2.0770   39.2884 C   0  0  0  0  0  0  0  0  0  0  0  0
   38.4066   -1.4308   39.3310 O   0  0  0  0  0  0  0  0  0  0  0  0
   36.1306   -1.5864   39.9721 N   0  0  0  0  0  0  0  0  0  0  0  0
   34.9742   -2.2547   39.8845 C   0  0  0  0  0  0  0  0  0  0  0  0
   33.6249   -1.6284   40.8489 S   0  0  0  0  0  0  0  0  0  0  0  0
   32.3006   -2.2594   39.7864 C   0  0  0  0  0  0  0  0  0  0  0  0
   31.7088   -1.1854   38.9094 C   0  0  0  0  0  0  0  0  0  0  0  0
   31.8408    0.1680   39.2420 C   0  0  0  0  0  0  0  0  0  0  0  0
   31.3157    1.1606   38.4085 C   0  0  0  0  0  0  0  0  0  0  0  0
   30.6320    0.8230   37.2320 C   0  0  0  0  0  0  0  0  0  0  0  0
   30.4921   -0.5342   36.9088 C   0  0  0  0  0  0  0  0  0  0  0  0
   31.0209   -1.5266   37.7379 C   0  0  0  0  0  0  0  0  0  0  0  0
   30.8946   -2.5713   37.4606 H   0  0  0  0  0  0  0  0  0  0  0  0
   29.9715   -0.8326   36.0011 H   0  0  0  0  0  0  0  0  0  0  0  0
   30.0781    1.8753   36.2872 C   0  0  0  0  0  0  0  0  0  0  0  0
   29.1227    1.2367   35.2768 C   0  0  0  0  0  0  0  0  0  0  0  0
   29.6372    0.5141   34.6337 H   0  0  0  0  0  0  0  0  0  0  0  0
   28.3090    0.7083   35.7864 H   0  0  0  0  0  0  0  0  0  0  0  0
   28.6730    2.0003   34.6333 H   0  0  0  0  0  0  0  0  0  0  0  0
   31.1687    2.6763   35.5708 C   0  0  0  0  0  0  0  0  0  0  0  0
   31.6942    2.0780   34.8189 H   0  0  0  0  0  0  0  0  0  0  0  0
   31.9111    3.0527   36.2829 H   0  0  0  0  0  0  0  0  0  0  0  0
   30.7317    3.5383   35.0547 H   0  0  0  0  0  0  0  0  0  0  0  0
   29.5004    2.5983   36.8790 H   0  0  0  0  0  0  0  0  0  0  0  0
   31.4559    2.2017   38.6886 H   0  0  0  0  0  0  0  0  0  0  0  0
   32.3617    0.4627   40.1505 H   0  0  0  0  0  0  0  0  0  0  0  0
   31.4997   -2.6929   40.3978 H   0  0  0  0  0  0  0  0  0  0  0  0
   32.6959   -3.0730   39.1666 H   0  0  0  0  0  0  0  0  0  0  0  0
   34.7436   -3.3698   39.1810 N   0  0  0  0  0  0  0  0  0  0  0  0
   37.7868   -3.6326   38.0323 H   0  0  0  0  0  0  0  0  0  0  0  0
   37.5459   -5.6557   38.9603 H   0  0  0  0  0  0  0  0  0  0  0  0
   37.6369   -6.6432   37.4919 H   0  0  0  0  0  0  0  0  0  0  0  0
   36.2005   -9.1080   37.6432 H   0  0  0  0  0  0  0  0  0  0  0  0
   35.0993   -9.5602   42.0571 C   0  0  0  0  0  0  0  0  0  0  0  0
   35.8651   -9.4817   42.8356 H   0  0  0  0  0  0  0  0  0  0  0  0
   34.8712  -10.6206   41.9099 H   0  0  0  0  0  0  0  0  0  0  0  0
   34.1989   -9.0546   42.4200 H   0  0  0  0  0  0  0  0  0  0  0  0
  1  2  1  0  0  0  0
  1  5  1  0  0  0  0
  2  3  2  0  0  0  0
  2 43  1  0  0  0  0
  3  4  1  0  0  0  0
  4  5  2  0  0  0  0
  4 42  1  0  0  0  0
  5  6  1  0  0  0  0
  6  7  1  0  0  0  0
  6 40  1  0  0  0  0
  6 41  1  0  0  0  0
  7  8  1  0  0  0  0
  8  9  1  0  0  0  0
  8 38  2  0  0  0  0
  9 10  1  0  0  0  0
  9 39  1  0  0  0  0
 10 11  2  0  0  0  0
 10 12  1  0  0  0  0
 12 13  2  0  0  0  0
 13 14  1  0  0  0  0
 13 38  1  0  0  0  0
 14 15  1  0  0  0  0
 15 16  1  0  0  0  0
 15 36  1  0  0  0  0
 15 37  1  0  0  0  0
 16 17  1  0  0  0  0
 16 21  2  0  0  0  0
 17 18  2  0  0  0  0
 17 35  1  0  0  0  0
 18 19  1  0  0  0  0
 18 34  1  0  0  0  0
 19 20  2  0  0  0  0
 19 24  1  0  0  0  0
 20 21  1  0  0  0  0
 20 23  1  0  0  0  0
 21 22  1  0  0  0  0
 24 25  1  0  0  0  0
 24 29  1  0  0  0  0
 24 33  1  0  0  0  0
 25 26  1  0  0  0  0
 25 27  1  0  0  0  0
 25 28  1  0  0  0  0
 29 30  1  0  0  0  0
 29 31  1  0  0  0  0
 29 32  1  0  0  0  0
 43 44  1  0  0  0  0
 43 45  1  0  0  0  0
 43 46  1  0  0  0  0
M  END
> <Gold.Goldscore.Fitness>
67.7756

> <Gold.Goldscore.External.HBond>
1.4847

> <Gold.Protein.ActiveResidues>
 GLU87   ILE88   VAL90   ASN91   ALA92   ASP94   ASN95   ARG98   ILE118  ASN120 
 LYS123  GLY124  ILE125  ILE141  PHE142  THR147  SER148  SER149  ASN150  TYR151 
 GLY160  GLY161  ARG162  ASN163  GLY164  TYR165  GLY166  ALA167  LYS168  LEU169 
 THR181  THR215  ILE217  ILE317  GLN376  LYS378  ILE33   TYR34   MG903  

> <Gold.Goldscore.Internal.HBond>
0.0

> <Gold.Goldscore.Internal.Torsion.Weighted>
-4.6232

> <Gold.Protein.RotatedTorsions>
[ 8833 2752 2751 2750 ] final  -92.65 input   60.00 | X-H torsion
[ 6906  969  968  965 ] final -179.89 input   59.99 | X-H torsion
[ 6910  975  974  971 ] final  -12.12 input   60.00 | X-H torsion
[ 6897  962  961  958 ] final   71.11 input   60.00 | X-H torsion
[ 9084 2997 2996 2994 ] final  -38.60 input   60.00 | X-H torsion
[ 7406 1497 1496 1493 ] final  170.76 input   60.00 | X-H torsion
[ 7140 1220 1219 1216 ] final  115.27 input   60.00 | X-H torsion
[ 6926  995  994  992 ] final   25.13 input   60.0

> <Gold.Goldscore.Constraint.Score>
0.0

> <Gold.Id.Protein>
1ZXM|1ZXM_protein|mol2

> <Gold.Protein.RotatedAtoms>
   40.6750    3.3830   41.8637 H   0  0  0  0  0  0  0  0  0  0  0  0  # atno 6897 bound_to 962 
   42.5663   -2.5035   38.2571 H   0  0  0  0  0  0  0  0  0  0  0  0  # atno 6906 bound_to 969 
   38.8111   -4.3840   40.0676 H   0  0  0  0  0  0  0  0  0  0  0  0  # atno 6910 bound_to 975 
   45.8911    1.1244   38.6740 H   0  0  0  0  0  0  0  0  0  0  0  0  # atno 6926 bound_to 995 
   28.0475    0.1168   43.0607 H   0  0  0  0  0  0  0  0  0  0  0  0  # atno 7140 bound_to 1220
   28.2838   -0.9017   41.0

> <Gold.Version>
5.3.0

> <Gold.Goldscore.Internal.Correction>
-0.0166

> <Gold.Goldscore.Internal.Vdw>
-1.3472

> <Gold.Goldscore.Internal.Vdw.Weighted>
-1.3472

> <Gold.Goldscore.External.HBond.Weighted>
1.4847

> <Gold.Goldscore.External.Vdw.Weighted>
72.2447

> <Gold.Goldscore.Internal.HBond.Weighted>
0.0

> <Gold.Goldscore.Hbonds>
donor molecule, donor type, donor heavy atom, donor atom, acceptor molecule, acceptor atom, score
      L1  H     1    27       P1   757  0.74

> <Gold.Goldscore.External.Vdw>
52.5416

> <Gold.Goldscore.Internal.Torsion>
-4.6232

> <Gold.Goldscore.Internal.Correction.Weighted>
-0.0166

> <Gold.Version>
5.3.0

> <Gold.Id.Protein>
1ZXM|1ZXM_protein|mol2

> <Gold.ASP.Fitness>
28.1082

> <Gold.ASP.ASP>
30.7480

> <Gold.ASP.Map>
-153.7400

> <Gold.ASP.DEClash>
0.7776

> <Gold.ASP.DEInternal>
1.8621

> <Gold.ASP.Internal.Correction>
0.1091

> <Gold.Protein.RotatedTorsions>
[ 8924 2752 2751 2750 ] final  -96.22 input   60.00 | X-H torsion
[ 6908  969  968  965 ] final  -11.43 input   59.99 | X-H torsion
[ 6912  975  974  971 ] final    5.33 input   60.00 | X-H torsion
[ 6899  962  961  958 ] final   -8.98 input   60.00 | X-H torsion
[ 9165 2997 2996 2994 ] final  112.34 input   60.00 | X-H torsion
[ 7410 1497 1496 1493 ] final   -9.14 input   60.00 | X-H torsion
[ 7137 1220 1219 1216 ] final -160.01 input   60.00 | X-H torsion
[ 6928  995  994  992 ] final   -0.28 input   60.00 | X-H torsion

> <Gold.Protein.ActiveResidues>
 GLU87   ILE88   VAL90   ASN91   ALA92   ASP94   ASN95   ARG98   ILE118  ASN120 
 LYS123  GLY124  ILE125  ILE141  PHE142  THR147  SER148  SER149  ASN150  TYR151 
 GLY160  GLY161  ARG162  ASN163  GLY164  TYR165  GLY166  ALA167  LYS168  LEU169 
 THR181  THR215  ILE217  ILE317  GLN376  LYS378  ILE33   TYR34   MG903  

> <Gold.Protein.RotatedAtoms>
   41.7133    3.8800   41.5087 H   0  0  0  0  0  0  0  0  0  0  0  0  # atno 6899 bound_to 962 
   41.3302   -2.9127   39.5895 H   0  0  0  0  0  0  0  0  0  0  0  0  # atno 6908 bound_to 969 
   38.8798   -4.6547   40.0158 H   0  0  0  0  0  0  0  0  0  0  0  0  # atno 6912 bound_to 975 
   46.3024    1.1394   38.6861 H   0  0  0  0  0  0  0  0  0  0  0  0  # atno 6928 bound_to 995 
   28.5605   -0.0534   44.2006 H   0  0  0  0  0  0  0  0  0  0  0  0  # atno 7137 bound_to 1220
   26.8105   -0.2393   42.0051 H   0  0  0  0  0  0  0  0  0  0  0  0  # atno 7410 bound_to 1497
   43.7166   -1.0593   30.6298 H   0  0  0  0  0  0  0  0  0  0  0  0  # atno 8924 bound_to 2752
   43.9892   -0.1232   29.2894 H   0  0  0  0  0  0  0  0  0  0  0  0  # atno 8925 bound_to 2752
   43.3087    0.5471   30.6441 H   0  0  0  0  0  0  0  0  0  0  0  0  # atno 8926 bound_to 2752
   34.5973   -5.3127   44.7735 H   0  0  0  0  0  0  0  0  0  0  0  0  # atno 9165 bound_to 2997
   42.7661   -2.9831   38.8270 LP  0  0  0  0  0  0  0  0  0  0  0  0  # atno 11896 bound_to 969 
   41.5602   -2.0643   38.2200 LP  0  0  0  0  0  0  0  0  0  0  0  0  # atno 11897 bound_to 969 
   37.5575   -4.0609   40.7553 LP  0  0  0  0  0  0  0  0  0  0  0  0  # atno 11898 bound_to 975 
   37.7378   -5.6732   40.5695 LP  0  0  0  0  0  0  0  0  0  0  0  0  # atno 11899 bound_to 975 
   41.3668    4.8331   42.7813 LP  0  0  0  0  0  0  0  0  0  0  0  0  # atno 11904 bound_to 962 
   40.3571    3.6177   42.3689 LP  0  0  0  0  0  0  0  0  0  0  0  0  # atno 11905 bound_to 962 
   34.3903   -3.9826   43.8592 LP  0  0  0  0  0  0  0  0  0  0  0  0  # atno 11912 bound_to 2997
   33.7964   -4.0324   45.3795 LP  0  0  0  0  0  0  0  0  0  0  0  0  # atno 11913 bound_to 2997
   28.3731   -0.1157   41.5680 LP  0  0  0  0  0  0  0  0  0  0  0  0  # atno 11922 bound_to 1497
   27.4658   -1.3594   41.0233 LP  0  0  0  0  0  0  0  0  0  0  0  0  # atno 11923 bound_to 1497
   27.4823    0.1062   42.9923 LP  0  0  0  0  0  0  0  0  0  0  0  0  # atno 11930 bound_to 1220
   26.9685   -0.1634   44.5188 LP  0  0  0  0  0  0  0  0  0  0  0  0  # atno 11931 bound_to 1220

$$$$
****|SGG-4|sdf|1|dock40
  -GOLD-   9 72311473D 1   1.00000     0.00000

 46 48  0  0  0  0  0  0  0  0  1 V2000
   36.5000    0.6802   38.0016 S   0  0  0  0  0  0  0  0  0  0  0  0
   36.9435    1.5898   39.3899 C   0  0  0  0  0  0  0  0  0  0  0  0
   37.9324    1.0928   40.1006 N   0  0  0  0  0  0  0  0  0  0  0  0
   38.3752   -0.0797   39.5219 C   0  0  0  0  0  0  0  0  0  0  0  0
   37.7209   -0.4698   38.3688 C   0  0  0  0  0  0  0  0  0  0  0  0
   37.9191   -1.6833   37.5190 C   0  0  0  0  0  0  0  0  0  0  0  0
   36.3500   -2.2193   36.7634 S   0  0  0  0  0  0  0  0  0  0  0  0
   35.7456   -3.2291   38.0693 C   0  0  0  0  0  0  0  0  0  0  0  0
   35.6667   -4.6001   37.8773 N   0  0  0  0  0  0  0  0  0  0  0  0
   35.1802   -5.4156   38.8915 C   0  0  0  0  0  0  0  0  0  0  0  0
   35.1078   -6.7987   38.7112 O   0  0  0  0  0  0  0  0  0  0  0  0
   34.7727   -4.8652   40.0393 N   0  0  0  0  0  0  0  0  0  0  0  0
   34.8724   -3.5346   40.1450 C   0  0  0  0  0  0  0  0  0  0  0  0
   34.2671   -2.8139   41.6474 S   0  0  0  0  0  0  0  0  0  0  0  0
   32.5057   -2.9527   41.2486 C   0  0  0  0  0  0  0  0  0  0  0  0
   32.0613   -1.9161   40.2483 C   0  0  0  0  0  0  0  0  0  0  0  0
   30.8222   -2.0220   39.6055 C   0  0  0  0  0  0  0  0  0  0  0  0
   30.4029   -1.0410   38.7014 C   0  0  0  0  0  0  0  0  0  0  0  0
   31.2194    0.0597   38.4060 C   0  0  0  0  0  0  0  0  0  0  0  0
   32.4646    0.1558   39.0434 C   0  0  0  0  0  0  0  0  0  0  0  0
   32.8824   -0.8208   39.9509 C   0  0  0  0  0  0  0  0  0  0  0  0
   33.8550   -0.7189   40.4282 H   0  0  0  0  0  0  0  0  0  0  0  0
   33.1222    0.9988   38.8416 H   0  0  0  0  0  0  0  0  0  0  0  0
   30.7820    1.1601   37.4547 C   0  0  0  0  0  0  0  0  0  0  0  0
   30.1999    0.5589   36.1736 C   0  0  0  0  0  0  0  0  0  0  0  0
   30.9488   -0.0191   35.6209 H   0  0  0  0  0  0  0  0  0  0  0  0
   29.3629   -0.1113   36.4001 H   0  0  0  0  0  0  0  0  0  0  0  0
   29.8263    1.3471   35.5113 H   0  0  0  0  0  0  0  0  0  0  0  0
   31.8998    2.1541   37.1280 C   0  0  0  0  0  0  0  0  0  0  0  0
   32.6697    1.7136   36.4855 H   0  0  0  0  0  0  0  0  0  0  0  0
   32.3861    2.5122   38.0418 H   0  0  0  0  0  0  0  0  0  0  0  0
   31.4937    3.0245   36.6008 H   0  0  0  0  0  0  0  0  0  0  0  0
   29.9851    1.7384   37.9417 H   0  0  0  0  0  0  0  0  0  0  0  0
   29.4253   -1.1462   38.2373 H   0  0  0  0  0  0  0  0  0  0  0  0
   30.1674   -2.8664   39.8095 H   0  0  0  0  0  0  0  0  0  0  0  0
   31.9025   -2.8429   42.1582 H   0  0  0  0  0  0  0  0  0  0  0  0
   32.3048   -3.9582   40.8599 H   0  0  0  0  0  0  0  0  0  0  0  0
   35.3393   -2.6892   39.2183 N   0  0  0  0  0  0  0  0  0  0  0  0
   35.9656   -4.9969   36.9975 H   0  0  0  0  0  0  0  0  0  0  0  0
   38.6355   -1.4457   36.7237 H   0  0  0  0  0  0  0  0  0  0  0  0
   38.3321   -2.5095   38.1078 H   0  0  0  0  0  0  0  0  0  0  0  0
   39.1910   -0.6176   39.9906 H   0  0  0  0  0  0  0  0  0  0  0  0
   36.2117    2.8400   39.7291 C   0  0  0  0  0  0  0  0  0  0  0  0
   36.2358    3.5367   38.8848 H   0  0  0  0  0  0  0  0  0  0  0  0
   36.6788    3.3309   40.5886 H   0  0  0  0  0  0  0  0  0  0  0  0
   35.1626    2.6381   39.9675 H   0  0  0  0  0  0  0  0  0  0  0  0
  1  2  1  0  0  0  0
  1  5  1  0  0  0  0
  2  3  2  0  0  0  0
  2 43  1  0  0  0  0
  3  4  1  0  0  0  0
  4  5  2  0  0  0  0
  4 42  1  0  0  0  0
  5  6  1  0  0  0  0
  6  7  1  0  0  0  0
  6 40  1  0  0  0  0
  6 41  1  0  0  0  0
  7  8  1  0  0  0  0
  8  9  1  0  0  0  0
  8 38  2  0  0  0  0
  9 10  1  0  0  0  0
  9 39  1  0  0  0  0
 10 11  2  0  0  0  0
 10 12  1  0  0  0  0
 12 13  2  0  0  0  0
 13 14  1  0  0  0  0
 13 38  1  0  0  0  0
 14 15  1  0  0  0  0
 15 16  1  0  0  0  0
 15 36  1  0  0  0  0
 15 37  1  0  0  0  0
 16 17  1  0  0  0  0
 16 21  2  0  0  0  0
 17 18  2  0  0  0  0
 17 35  1  0  0  0  0
 18 19  1  0  0  0  0
 18 34  1  0  0  0  0
 19 20  2  0  0  0  0
 19 24  1  0  0  0  0
 20 21  1  0  0  0  0
 20 23  1  0  0  0  0
 21 22  1  0  0  0  0
 24 25  1  0  0  0  0
 24 29  1  0  0  0  0
 24 33  1  0  0  0  0
 25 26  1  0  0  0  0
 25 27  1  0  0  0  0
 25 28  1  0  0  0  0
 29 30  1  0  0  0  0
 29 31  1  0  0  0  0
 29 32  1  0  0  0  0
 43 44  1  0  0  0  0
 43 45  1  0  0  0  0
 43 46  1  0  0  0  0
M  END
> <Gold.Goldscore.Fitness>
67.7756

> <Gold.Goldscore.External.HBond>
1.4847

> <Gold.Protein.ActiveResidues>
 GLU87   ILE88   VAL90   ASN91   ALA92   ASP94   ASN95   ARG98   ILE118  ASN120 
 LYS123  GLY124  ILE125  ILE141  PHE142  THR147  SER148  SER149  ASN150  TYR151 
 GLY160  GLY161  ARG162  ASN163  GLY164  TYR165  GLY166  ALA167  LYS168  LEU169 
 THR181  THR215  ILE217  ILE317  GLN376  LYS378  ILE33   TYR34   MG903  

> <Gold.Goldscore.Internal.HBond>
0.0

> <Gold.Goldscore.Internal.Torsion.Weighted>
-4.6232

> <Gold.Protein.RotatedTorsions>
[ 8833 2752 2751 2750 ] final  -92.65 input   60.00 | X-H torsion
[ 6906  969  968  965 ] final -179.89 input   59.99 | X-H torsion
[ 6910  975  974  971 ] final  -12.12 input   60.00 | X-H torsion
[ 6897  962  961  958 ] final   71.11 input   60.00 | X-H torsion
[ 9084 2997 2996 2994 ] final  -38.60 input   60.00 | X-H torsion
[ 7406 1497 1496 1493 ] final  170.76 input   60.00 | X-H torsion
[ 7140 1220 1219 1216 ] final  115.27 input   60.00 | X-H torsion
[ 6926  995  994  992 ] final   25.13 input   60.0

> <Gold.Goldscore.Constraint.Score>
0.0

> <Gold.Id.Protein>
1ZXM|1ZXM_protein|mol2

> <Gold.Protein.RotatedAtoms>
   40.6750    3.3830   41.8637 H   0  0  0  0  0  0  0  0  0  0  0  0  # atno 6897 bound_to 962 
   42.5663   -2.5035   38.2571 H   0  0  0  0  0  0  0  0  0  0  0  0  # atno 6906 bound_to 969 
   38.8111   -4.3840   40.0676 H   0  0  0  0  0  0  0  0  0  0  0  0  # atno 6910 bound_to 975 
   45.8911    1.1244   38.6740 H   0  0  0  0  0  0  0  0  0  0  0  0  # atno 6926 bound_to 995 
   28.0475    0.1168   43.0607 H   0  0  0  0  0  0  0  0  0  0  0  0  # atno 7140 bound_to 1220
   28.2838   -0.9017   41.0

> <Gold.Version>
5.3.0

> <Gold.Goldscore.Internal.Correction>
-0.0166

> <Gold.Goldscore.Internal.Vdw>
-1.3472

> <Gold.Goldscore.Internal.Vdw.Weighted>
-1.3472

> <Gold.Goldscore.External.HBond.Weighted>
1.4847

> <Gold.Goldscore.External.Vdw.Weighted>
72.2447

> <Gold.Goldscore.Internal.HBond.Weighted>
0.0

> <Gold.Goldscore.Hbonds>
donor molecule, donor type, donor heavy atom, donor atom, acceptor molecule, acceptor atom, score
      L1  H     1    27       P1   757  0.74

> <Gold.Goldscore.External.Vdw>
52.5416

> <Gold.Goldscore.Internal.Torsion>
-4.6232

> <Gold.Goldscore.Internal.Correction.Weighted>
-0.0166

> <Gold.Version>
5.3.0

> <Gold.Id.Protein>
1ZXM|1ZXM_protein|mol2

> <Gold.ASP.Fitness>
28.0519

> <Gold.ASP.ASP>
30.6160

> <Gold.ASP.Map>
-153.0800

> <Gold.ASP.DEClash>
1.3857

> <Gold.ASP.DEInternal>
1.1784

> <Gold.ASP.Internal.Correction>
0.1091

> <Gold.Protein.RotatedTorsions>
[ 8924 2752 2751 2750 ] final  -95.38 input   60.00 | X-H torsion
[ 6908  969  968  965 ] final -126.84 input   59.99 | X-H torsion
[ 6912  975  974  971 ] final   -8.59 input   60.00 | X-H torsion
[ 6899  962  961  958 ] final  -78.55 input   60.00 | X-H torsion
[ 9165 2997 2996 2994 ] final  -26.84 input   60.00 | X-H torsion
[ 7410 1497 1496 1493 ] final  -66.17 input   60.00 | X-H torsion
[ 7137 1220 1219 1216 ] final   14.61 input   60.00 | X-H torsion
[ 6928  995  994  992 ] final  168.31 input   60.00 | X-H torsion

> <Gold.Protein.ActiveResidues>
 GLU87   ILE88   VAL90   ASN91   ALA92   ASP94   ASN95   ARG98   ILE118  ASN120 
 LYS123  GLY124  ILE125  ILE141  PHE142  THR147  SER148  SER149  ASN150  TYR151 
 GLY160  GLY161  ARG162  ASN163  GLY164  TYR165  GLY166  ALA167  LYS168  LEU169 
 THR181  THR215  ILE217  ILE317  GLN376  LYS378  ILE33   TYR34   MG903  

> <Gold.Protein.RotatedAtoms>
   41.8876    4.6819   42.1925 H   0  0  0  0  0  0  0  0  0  0  0  0  # atno 6899 bound_to 962 
   42.7471   -3.0170   38.8918 H   0  0  0  0  0  0  0  0  0  0  0  0  # atno 6908 bound_to 969 
   38.8309   -4.4365   40.0541 H   0  0  0  0  0  0  0  0  0  0  0  0  # atno 6912 bound_to 975 
   45.6479    1.5759   40.3750 H   0  0  0  0  0  0  0  0  0  0  0  0  # atno 6928 bound_to 995 
   26.7608   -0.0320   43.6924 H   0  0  0  0  0  0  0  0  0  0  0  0  # atno 7137 bound_to 1220
   27.5829    0.2082   42.0514 H   0  0  0  0  0  0  0  0  0  0  0  0  # atno 7410 bound_to 1497
   43.7223   -1.0649   30.6184 H   0  0  0  0  0  0  0  0  0  0  0  0  # atno 8924 bound_to 2752
   43.9857   -0.1097   29.2897 H   0  0  0  0  0  0  0  0  0  0  0  0  # atno 8925 bound_to 2752
   43.3064    0.5391   30.6553 H   0  0  0  0  0  0  0  0  0  0  0  0  # atno 8926 bound_to 2752
   34.2333   -3.7679   44.0246 H   0  0  0  0  0  0  0  0  0  0  0  0  # atno 9165 bound_to 2997
   41.6278   -2.0693   38.1867 LP  0  0  0  0  0  0  0  0  0  0  0  0  # atno 11896 bound_to 969 
   41.2716   -2.8730   39.5629 LP  0  0  0  0  0  0  0  0  0  0  0  0  # atno 11897 bound_to 969 
   37.4130   -4.2241   40.8238 LP  0  0  0  0  0  0  0  0  0  0  0  0  # atno 11898 bound_to 975 
   37.9315   -5.7298   40.4625 LP  0  0  0  0  0  0  0  0  0  0  0  0  # atno 11899 bound_to 975 
   40.4882    4.2207   42.8832 LP  0  0  0  0  0  0  0  0  0  0  0  0  # atno 11904 bound_to 962 
   41.0601    3.4225   41.5783 LP  0  0  0  0  0  0  0  0  0  0  0  0  # atno 11905 bound_to 962 
   33.8616   -4.3089   45.5136 LP  0  0  0  0  0  0  0  0  0  0  0  0  # atno 11912 bound_to 2997
   34.6916   -5.2617   44.4793 LP  0  0  0  0  0  0  0  0  0  0  0  0  # atno 11913 bound_to 2997
   28.3167   -0.8664   41.0743 LP  0  0  0  0  0  0  0  0  0  0  0  0  # atno 11922 bound_to 1497
   26.7443   -1.0595   41.4703 LP  0  0  0  0  0  0  0  0  0  0  0  0  # atno 11923 bound_to 1497
   27.9485   -0.1751   44.7955 LP  0  0  0  0  0  0  0  0  0  0  0  0  # atno 11930 bound_to 1220
   28.3149    0.0963   43.2274 LP  0  0  0  0  0  0  0  0  0  0  0  0  # atno 11931 bound_to 1220

$$$$
****|SGG-4|sdf|1|dock100
  -GOLD-   9 72311523D 1   1.00000     0.00000

 46 48  0  0  0  0  0  0  0  0  1 V2000
   39.3891   -0.4900   38.1995 S   0  0  0  0  0  0  0  0  0  0  0  0
   39.5462    0.0139   36.5645 C   0  0  0  0  0  0  0  0  0  0  0  0
   38.6410    0.8718   36.1468 N   0  0  0  0  0  0  0  0  0  0  0  0
   37.7632    1.1560   37.1736 C   0  0  0  0  0  0  0  0  0  0  0  0
   38.0063    0.5129   38.3725 C   0  0  0  0  0  0  0  0  0  0  0  0
   37.2461    0.5644   39.6583 C   0  0  0  0  0  0  0  0  0  0  0  0
   37.5714   -0.9135   40.6732 S   0  0  0  0  0  0  0  0  0  0  0  0
   36.6008   -2.0783   39.7836 C   0  0  0  0  0  0  0  0  0  0  0  0
   37.0773   -2.5685   38.5772 N   0  0  0  0  0  0  0  0  0  0  0  0
   36.3207   -3.4802   37.8515 C   0  0  0  0  0  0  0  0  0  0  0  0
   36.7979   -3.9879   36.6410 O   0  0  0  0  0  0  0  0  0  0  0  0
   35.1270   -3.8616   38.3165 N   0  0  0  0  0  0  0  0  0  0  0  0
   34.7330   -3.3376   39.4834 C   0  0  0  0  0  0  0  0  0  0  0  0
   33.1201   -3.8026   40.0537 S   0  0  0  0  0  0  0  0  0  0  0  0
   32.6230   -2.1593   40.6311 C   0  0  0  0  0  0  0  0  0  0  0  0
   32.1707   -1.2680   39.5025 C   0  0  0  0  0  0  0  0  0  0  0  0
   31.0344   -1.5837   38.7482 C   0  0  0  0  0  0  0  0  0  0  0  0
   30.6029   -0.7369   37.7223 C   0  0  0  0  0  0  0  0  0  0  0  0
   31.3066    0.4362   37.4154 C   0  0  0  0  0  0  0  0  0  0  0  0
   32.4508    0.7425   38.1659 C   0  0  0  0  0  0  0  0  0  0  0  0
   32.8798   -0.0999   39.1945 C   0  0  0  0  0  0  0  0  0  0  0  0
   33.7725    0.1644   39.7580 H   0  0  0  0  0  0  0  0  0  0  0  0
   33.0187    1.6471   37.9584 H   0  0  0  0  0  0  0  0  0  0  0  0
   30.8479    1.3951   36.3304 C   0  0  0  0  0  0  0  0  0  0  0  0
   31.7138    2.6567   36.3312 C   0  0  0  0  0  0  0  0  0  0  0  0
   31.6158    3.2146   37.2691 H   0  0  0  0  0  0  0  0  0  0  0  0
   32.7727    2.4056   36.2025 H   0  0  0  0  0  0  0  0  0  0  0  0
   31.4269    3.3234   35.5110 H   0  0  0  0  0  0  0  0  0  0  0  0
   29.3636    1.7561   36.4331 C   0  0  0  0  0  0  0  0  0  0  0  0
   29.1546    2.4060   37.2895 H   0  0  0  0  0  0  0  0  0  0  0  0
   28.7467    0.8564   36.5329 H   0  0  0  0  0  0  0  0  0  0  0  0
   29.0376    2.2882   35.5326 H   0  0  0  0  0  0  0  0  0  0  0  0
   30.9807    0.9021   35.3578 H   0  0  0  0  0  0  0  0  0  0  0  0
   29.7042   -1.0040   37.1718 H   0  0  0  0  0  0  0  0  0  0  0  0
   30.4691   -2.4890   38.9583 H   0  0  0  0  0  0  0  0  0  0  0  0
   33.4582   -1.6720   41.1489 H   0  0  0  0  0  0  0  0  0  0  0  0
   31.8184   -2.2671   41.3683 H   0  0  0  0  0  0  0  0  0  0  0  0
   35.4102   -2.4662   40.2407 N   0  0  0  0  0  0  0  0  0  0  0  0
   37.9754   -2.2576   38.2343 H   0  0  0  0  0  0  0  0  0  0  0  0
   37.5546    1.4561   40.2168 H   0  0  0  0  0  0  0  0  0  0  0  0
   36.1692    0.6398   39.4728 H   0  0  0  0  0  0  0  0  0  0  0  0
   36.9515    1.8500   36.9895 H   0  0  0  0  0  0  0  0  0  0  0  0
   40.6415   -0.5299   35.7171 C   0  0  0  0  0  0  0  0  0  0  0  0
   41.6132   -0.3503   36.1887 H   0  0  0  0  0  0  0  0  0  0  0  0
   40.6424   -0.0395   34.7386 H   0  0  0  0  0  0  0  0  0  0  0  0
   40.5351   -1.6092   35.5688 H   0  0  0  0  0  0  0  0  0  0  0  0
  1  2  1  0  0  0  0
  1  5  1  0  0  0  0
  2  3  2  0  0  0  0
  2 43  1  0  0  0  0
  3  4  1  0  0  0  0
  4  5  2  0  0  0  0
  4 42  1  0  0  0  0
  5  6  1  0  0  0  0
  6  7  1  0  0  0  0
  6 40  1  0  0  0  0
  6 41  1  0  0  0  0
  7  8  1  0  0  0  0
  8  9  1  0  0  0  0
  8 38  2  0  0  0  0
  9 10  1  0  0  0  0
  9 39  1  0  0  0  0
 10 11  2  0  0  0  0
 10 12  1  0  0  0  0
 12 13  2  0  0  0  0
 13 14  1  0  0  0  0
 13 38  1  0  0  0  0
 14 15  1  0  0  0  0
 15 16  1  0  0  0  0
 15 36  1  0  0  0  0
 15 37  1  0  0  0  0
 16 17  1  0  0  0  0
 16 21  2  0  0  0  0
 17 18  2  0  0  0  0
 17 35  1  0  0  0  0
 18 19  1  0  0  0  0
 18 34  1  0  0  0  0
 19 20  2  0  0  0  0
 19 24  1  0  0  0  0
 20 21  1  0  0  0  0
 20 23  1  0  0  0  0
 21 22  1  0  0  0  0
 24 25  1  0  0  0  0
 24 29  1  0  0  0  0
 24 33  1  0  0  0  0
 25 26  1  0  0  0  0
 25 27  1  0  0  0  0
 25 28  1  0  0  0  0
 29 30  1  0  0  0  0
 29 31  1  0  0  0  0
 29 32  1  0  0  0  0
 43 44  1  0  0  0  0
 43 45  1  0  0  0  0
 43 46  1  0  0  0  0
M  END
> <Gold.Goldscore.Fitness>
67.7756

> <Gold.Goldscore.External.HBond>
1.4847

> <Gold.Protein.ActiveResidues>
 GLU87   ILE88   VAL90   ASN91   ALA92   ASP94   ASN95   ARG98   ILE118  ASN120 
 LYS123  GLY124  ILE125  ILE141  PHE142  THR147  SER148  SER149  ASN150  TYR151 
 GLY160  GLY161  ARG162  ASN163  GLY164  TYR165  GLY166  ALA167  LYS168  LEU169 
 THR181  THR215  ILE217  ILE317  GLN376  LYS378  ILE33   TYR34   MG903  

> <Gold.Goldscore.Internal.HBond>
0.0

> <Gold.Goldscore.Internal.Torsion.Weighted>
-4.6232

> <Gold.Protein.RotatedTorsions>
[ 8833 2752 2751 2750 ] final  -92.65 input   60.00 | X-H torsion
[ 6906  969  968  965 ] final -179.89 input   59.99 | X-H torsion
[ 6910  975  974  971 ] final  -12.12 input   60.00 | X-H torsion
[ 6897  962  961  958 ] final   71.11 input   60.00 | X-H torsion
[ 9084 2997 2996 2994 ] final  -38.60 input   60.00 | X-H torsion
[ 7406 1497 1496 1493 ] final  170.76 input   60.00 | X-H torsion
[ 7140 1220 1219 1216 ] final  115.27 input   60.00 | X-H torsion
[ 6926  995  994  992 ] final   25.13 input   60.0

> <Gold.Goldscore.Constraint.Score>
0.0

> <Gold.Id.Protein>
1ZXM|1ZXM_protein|mol2

> <Gold.Protein.RotatedAtoms>
   40.6750    3.3830   41.8637 H   0  0  0  0  0  0  0  0  0  0  0  0  # atno 6897 bound_to 962 
   42.5663   -2.5035   38.2571 H   0  0  0  0  0  0  0  0  0  0  0  0  # atno 6906 bound_to 969 
   38.8111   -4.3840   40.0676 H   0  0  0  0  0  0  0  0  0  0  0  0  # atno 6910 bound_to 975 
   45.8911    1.1244   38.6740 H   0  0  0  0  0  0  0  0  0  0  0  0  # atno 6926 bound_to 995 
   28.0475    0.1168   43.0607 H   0  0  0  0  0  0  0  0  0  0  0  0  # atno 7140 bound_to 1220
   28.2838   -0.9017   41.0

> <Gold.Version>
5.3.0

> <Gold.Goldscore.Internal.Correction>
-0.0166

> <Gold.Goldscore.Internal.Vdw>
-1.3472

> <Gold.Goldscore.Internal.Vdw.Weighted>
-1.3472

> <Gold.Goldscore.External.HBond.Weighted>
1.4847

> <Gold.Goldscore.External.Vdw.Weighted>
72.2447

> <Gold.Goldscore.Internal.HBond.Weighted>
0.0

> <Gold.Goldscore.Hbonds>
donor molecule, donor type, donor heavy atom, donor atom, acceptor molecule, acceptor atom, score
      L1  H     1    27       P1   757  0.74

> <Gold.Goldscore.External.Vdw>
52.5416

> <Gold.Goldscore.Internal.Torsion>
-4.6232

> <Gold.Goldscore.Internal.Correction.Weighted>
-0.0166

> <Gold.Version>
5.3.0

> <Gold.Id.Protein>
1ZXM|1ZXM_protein|mol2

> <Gold.ASP.Fitness>
28.0303

> <Gold.ASP.ASP>
29.7340

> <Gold.ASP.Map>
-148.6700

> <Gold.ASP.DEClash>
0.7210

> <Gold.ASP.DEInternal>
0.9827

> <Gold.ASP.Internal.Correction>
0.1072

> <Gold.Protein.RotatedTorsions>
[ 8924 2752 2751 2750 ] final   30.82 input   60.00 | X-H torsion
[ 6908  969  968  965 ] final  -37.22 input   59.99 | X-H torsion
[ 6912  975  974  971 ] final -175.51 input   60.00 | X-H torsion
[ 6899  962  961  958 ] final   69.06 input   60.00 | X-H torsion
[ 9165 2997 2996 2994 ] final   16.95 input   60.00 | X-H torsion
[ 7410 1497 1496 1493 ] final  -79.26 input   60.00 | X-H torsion
[ 7137 1220 1219 1216 ] final  157.57 input   60.00 | X-H torsion
[ 6928  995  994  992 ] final -124.31 input   60.00 | X-H torsion

> <Gold.Protein.ActiveResidues>
 GLU87   ILE88   VAL90   ASN91   ALA92   ASP94   ASN95   ARG98   ILE118  ASN120 
 LYS123  GLY124  ILE125  ILE141  PHE142  THR147  SER148  SER149  ASN150  TYR151 
 GLY160  GLY161  ARG162  ASN163  GLY164  TYR165  GLY166  ALA167  LYS168  LEU169 
 THR181  THR215  ILE217  ILE317  GLN376  LYS378  ILE33   TYR34   MG903  

> <Gold.Protein.RotatedAtoms>
   40.6987    3.3797   41.8404 H   0  0  0  0  0  0  0  0  0  0  0  0  # atno 6899 bound_to 962 
   41.6862   -3.1160   39.6704 H   0  0  0  0  0  0  0  0  0  0  0  0  # atno 6908 bound_to 969 
   37.2438   -4.9507   40.8770 H   0  0  0  0  0  0  0  0  0  0  0  0  # atno 6912 bound_to 975 
   46.6775    1.5684   40.2383 H   0  0  0  0  0  0  0  0  0  0  0  0  # atno 6928 bound_to 995 
   28.5267    0.0555   43.5328 H   0  0  0  0  0  0  0  0  0  0  0  0  # atno 7137 bound_to 1220
   27.7861    0.2131   41.9865 H   0  0  0  0  0  0  0  0  0  0  0  0  # atno 7410 bound_to 1497
   43.9580   -0.0102   29.2973 H   0  0  0  0  0  0  0  0  0  0  0  0  # atno 8924 bound_to 2752
   43.2920    0.4751   30.7354 H   0  0  0  0  0  0  0  0  0  0  0  0  # atno 8925 bound_to 2752
   43.7644   -1.1004   30.5306 H   0  0  0  0  0  0  0  0  0  0  0  0  # atno 8926 bound_to 2752
   34.5711   -4.3339   43.7941 H   0  0  0  0  0  0  0  0  0  0  0  0  # atno 9165 bound_to 2997
   42.7372   -2.7363   38.4874 LP  0  0  0  0  0  0  0  0  0  0  0  0  # atno 11896 bound_to 969 
   41.2306   -2.1063   38.4782 LP  0  0  0  0  0  0  0  0  0  0  0  0  # atno 11897 bound_to 969 
   38.5720   -5.5223   40.1304 LP  0  0  0  0  0  0  0  0  0  0  0  0  # atno 11898 bound_to 975 
   38.3709   -3.9137   40.3272 LP  0  0  0  0  0  0  0  0  0  0  0  0  # atno 11899 bound_to 975 
   41.9599    4.4081   41.8449 LP  0  0  0  0  0  0  0  0  0  0  0  0  # atno 11904 bound_to 962 
   40.7857    4.5465   42.9713 LP  0  0  0  0  0  0  0  0  0  0  0  0  # atno 11905 bound_to 962 
   33.7888   -3.7484   45.0954 LP  0  0  0  0  0  0  0  0  0  0  0  0  # atno 11912 bound_to 2997
   34.4243   -5.2522   45.1296 LP  0  0  0  0  0  0  0  0  0  0  0  0  # atno 11913 bound_to 2997
   28.1870   -1.0250   41.0096 LP  0  0  0  0  0  0  0  0  0  0  0  0  # atno 11922 bound_to 1497
   26.6693   -0.9058   41.6004 LP  0  0  0  0  0  0  0  0  0  0  0  0  # atno 11923 bound_to 1497
   26.9096    0.0266   43.3544 LP  0  0  0  0  0  0  0  0  0  0  0  0  # atno 11930 bound_to 1220
   27.5753   -0.1936   44.8292 LP  0  0  0  0  0  0  0  0  0  0  0  0  # atno 11931 bound_to 1220

$$$$
****|SGG-4|sdf|1|dock85
  -GOLD-   9 72311513D 1   1.00000     0.00000

 46 48  0  0  0  0  0  0  0  0  1 V2000
   38.7776    0.1885   37.7476 S   0  0  0  0  0  0  0  0  0  0  0  0
   38.9348    1.8969   37.8370 C   0  0  0  0  0  0  0  0  0  0  0  0
   38.3809    2.4625   38.8873 N   0  0  0  0  0  0  0  0  0  0  0  0
   37.7924    1.4957   39.6777 C   0  0  0  0  0  0  0  0  0  0  0  0
   37.9033    0.1946   39.2252 C   0  0  0  0  0  0  0  0  0  0  0  0
   37.3631   -1.0714   39.8078 C   0  0  0  0  0  0  0  0  0  0  0  0
   37.3131   -2.3991   38.5609 S   0  0  0  0  0  0  0  0  0  0  0  0
   35.7900   -3.1490   39.0171 C   0  0  0  0  0  0  0  0  0  0  0  0
   35.2928   -4.1860   38.2425 N   0  0  0  0  0  0  0  0  0  0  0  0
   34.0846   -4.7845   38.5777 C   0  0  0  0  0  0  0  0  0  0  0  0
   33.5817   -5.8373   37.8099 O   0  0  0  0  0  0  0  0  0  0  0  0
   33.4014   -4.3387   39.6366 N   0  0  0  0  0  0  0  0  0  0  0  0
   33.9428   -3.3290   40.3286 C   0  0  0  0  0  0  0  0  0  0  0  0
   32.9936   -2.7061   41.6902 S   0  0  0  0  0  0  0  0  0  0  0  0
   31.3811   -2.7774   40.8682 C   0  0  0  0  0  0  0  0  0  0  0  0
   31.2626   -1.7721   39.7510 C   0  0  0  0  0  0  0  0  0  0  0  0
   30.2279   -1.8593   38.8121 C   0  0  0  0  0  0  0  0  0  0  0  0
   30.1060   -0.9061   37.7962 C   0  0  0  0  0  0  0  0  0  0  0  0
   31.0251    0.1467   37.6849 C   0  0  0  0  0  0  0  0  0  0  0  0
   32.0667    0.2235   38.6205 C   0  0  0  0  0  0  0  0  0  0  0  0
   32.1864   -0.7251   39.6392 C   0  0  0  0  0  0  0  0  0  0  0  0
   33.0065   -0.6392   40.3492 H   0  0  0  0  0  0  0  0  0  0  0  0
   32.7954    1.0297   38.5673 H   0  0  0  0  0  0  0  0  0  0  0  0
   30.9039    1.2175   36.6146 C   0  0  0  0  0  0  0  0  0  0  0  0
   31.8776    2.3645   36.8935 C   0  0  0  0  0  0  0  0  0  0  0  0
   31.6462    2.8720   37.8365 H   0  0  0  0  0  0  0  0  0  0  0  0
   32.9081    1.9972   36.9575 H   0  0  0  0  0  0  0  0  0  0  0  0
   31.8381    3.1092   36.0914 H   0  0  0  0  0  0  0  0  0  0  0  0
   29.4764    1.7461   36.4497 C   0  0  0  0  0  0  0  0  0  0  0  0
   29.1636    2.3630   37.2989 H   0  0  0  0  0  0  0  0  0  0  0  0
   28.7618    0.9220   36.3489 H   0  0  0  0  0  0  0  0  0  0  0  0
   29.4015    2.3671   35.5502 H   0  0  0  0  0  0  0  0  0  0  0  0
   31.1831    0.7722   35.6501 H   0  0  0  0  0  0  0  0  0  0  0  0
   29.2774   -0.9945   37.0978 H   0  0  0  0  0  0  0  0  0  0  0  0
   29.5012   -2.6669   38.8683 H   0  0  0  0  0  0  0  0  0  0  0  0
   30.5789   -2.5916   41.5929 H   0  0  0  0  0  0  0  0  0  0  0  0
   31.2222   -3.7901   40.4789 H   0  0  0  0  0  0  0  0  0  0  0  0
   35.1030   -2.7126   40.0729 N   0  0  0  0  0  0  0  0  0  0  0  0
   35.8158   -4.4999   37.4371 H   0  0  0  0  0  0  0  0  0  0  0  0
   38.0094   -1.3840   40.6365 H   0  0  0  0  0  0  0  0  0  0  0  0
   36.3546   -0.9187   40.2070 H   0  0  0  0  0  0  0  0  0  0  0  0
   37.2878    1.8008   40.5870 H   0  0  0  0  0  0  0  0  0  0  0  0
   39.6450    2.6392   36.7607 C   0  0  0  0  0  0  0  0  0  0  0  0
   40.6575    2.2440   36.6294 H   0  0  0  0  0  0  0  0  0  0  0  0
   39.7247    3.6994   37.0209 H   0  0  0  0  0  0  0  0  0  0  0  0
   39.1236    2.5513   35.8022 H   0  0  0  0  0  0  0  0  0  0  0  0
  1  2  1  0  0  0  0
  1  5  1  0  0  0  0
  2  3  2  0  0  0  0
  2 43  1  0  0  0  0
  3  4  1  0  0  0  0
  4  5  2  0  0  0  0
  4 42  1  0  0  0  0
  5  6  1  0  0  0  0
  6  7  1  0  0  0  0
  6 40  1  0  0  0  0
  6 41  1  0  0  0  0
  7  8  1  0  0  0  0
  8  9  1  0  0  0  0
  8 38  2  0  0  0  0
  9 10  1  0  0  0  0
  9 39  1  0  0  0  0
 10 11  2  0  0  0  0
 10 12  1  0  0  0  0
 12 13  2  0  0  0  0
 13 14  1  0  0  0  0
 13 38  1  0  0  0  0
 14 15  1  0  0  0  0
 15 16  1  0  0  0  0
 15 36  1  0  0  0  0
 15 37  1  0  0  0  0
 16 17  1  0  0  0  0
 16 21  2  0  0  0  0
 17 18  2  0  0  0  0
 17 35  1  0  0  0  0
 18 19  1  0  0  0  0
 18 34  1  0  0  0  0
 19 20  2  0  0  0  0
 19 24  1  0  0  0  0
 20 21  1  0  0  0  0
 20 23  1  0  0  0  0
 21 22  1  0  0  0  0
 24 25  1  0  0  0  0
 24 29  1  0  0  0  0
 24 33  1  0  0  0  0
 25 26  1  0  0  0  0
 25 27  1  0  0  0  0
 25 28  1  0  0  0  0
 29 30  1  0  0  0  0
 29 31  1  0  0  0  0
 29 32  1  0  0  0  0
 43 44  1  0  0  0  0
 43 45  1  0  0  0  0
 43 46  1  0  0  0  0
M  END
> <Gold.Goldscore.Fitness>
67.7756

> <Gold.Goldscore.External.HBond>
1.4847

> <Gold.Protein.ActiveResidues>
 GLU87   ILE88   VAL90   ASN91   ALA92   ASP94   ASN95   ARG98   ILE118  ASN120 
 LYS123  GLY124  ILE125  ILE141  PHE142  THR147  SER148  SER149  ASN150  TYR151 
 GLY160  GLY161  ARG162  ASN163  GLY164  TYR165  GLY166  ALA167  LYS168  LEU169 
 THR181  THR215  ILE217  ILE317  GLN376  LYS378  ILE33   TYR34   MG903  

> <Gold.Goldscore.Internal.HBond>
0.0

> <Gold.Goldscore.Internal.Torsion.Weighted>
-4.6232

> <Gold.Protein.RotatedTorsions>
[ 8833 2752 2751 2750 ] final  -92.65 input   60.00 | X-H torsion
[ 6906  969  968  965 ] final -179.89 input   59.99 | X-H torsion
[ 6910  975  974  971 ] final  -12.12 input   60.00 | X-H torsion
[ 6897  962  961  958 ] final   71.11 input   60.00 | X-H torsion
[ 9084 2997 2996 2994 ] final  -38.60 input   60.00 | X-H torsion
[ 7406 1497 1496 1493 ] final  170.76 input   60.00 | X-H torsion
[ 7140 1220 1219 1216 ] final  115.27 input   60.00 | X-H torsion
[ 6926  995  994  992 ] final   25.13 input   60.0

> <Gold.Goldscore.Constraint.Score>
0.0

> <Gold.Id.Protein>
1ZXM|1ZXM_protein|mol2

> <Gold.Protein.RotatedAtoms>
   40.6750    3.3830   41.8637 H   0  0  0  0  0  0  0  0  0  0  0  0  # atno 6897 bound_to 962 
   42.5663   -2.5035   38.2571 H   0  0  0  0  0  0  0  0  0  0  0  0  # atno 6906 bound_to 969 
   38.8111   -4.3840   40.0676 H   0  0  0  0  0  0  0  0  0  0  0  0  # atno 6910 bound_to 975 
   45.8911    1.1244   38.6740 H   0  0  0  0  0  0  0  0  0  0  0  0  # atno 6926 bound_to 995 
   28.0475    0.1168   43.0607 H   0  0  0  0  0  0  0  0  0  0  0  0  # atno 7140 bound_to 1220
   28.2838   -0.9017   41.0

> <Gold.Version>
5.3.0

> <Gold.Goldscore.Internal.Correction>
-0.0166

> <Gold.Goldscore.Internal.Vdw>
-1.3472

> <Gold.Goldscore.Internal.Vdw.Weighted>
-1.3472

> <Gold.Goldscore.External.HBond.Weighted>
1.4847

> <Gold.Goldscore.External.Vdw.Weighted>
72.2447

> <Gold.Goldscore.Internal.HBond.Weighted>
0.0

> <Gold.Goldscore.Hbonds>
donor molecule, donor type, donor heavy atom, donor atom, acceptor molecule, acceptor atom, score
      L1  H     1    27       P1   757  0.74

> <Gold.Goldscore.External.Vdw>
52.5416

> <Gold.Goldscore.Internal.Torsion>
-4.6232

> <Gold.Goldscore.Internal.Correction.Weighted>
-0.0166

> <Gold.Version>
5.3.0

> <Gold.Id.Protein>
1ZXM|1ZXM_protein|mol2

> <Gold.ASP.Fitness>
28.0272

> <Gold.ASP.ASP>
30.2440

> <Gold.ASP.Map>
-151.2200

> <Gold.ASP.DEClash>
1.0852

> <Gold.ASP.DEInternal>
1.1316

> <Gold.ASP.Internal.Correction>
0.1091

> <Gold.Protein.RotatedTorsions>
[ 8924 2752 2751 2750 ] final  113.67 input   60.00 | X-H torsion
[ 6908  969  968  965 ] final -146.64 input   59.99 | X-H torsion
[ 6912  975  974  971 ] final  107.50 input   60.00 | X-H torsion
[ 6899  962  961  958 ] final  141.60 input   60.00 | X-H torsion
[ 9165 2997 2996 2994 ] final -158.95 input   60.00 | X-H torsion
[ 7410 1497 1496 1493 ] final -152.95 input   60.00 | X-H torsion
[ 7137 1220 1219 1216 ] final -111.05 input   60.00 | X-H torsion
[ 6928  995  994  992 ] final  -62.94 input   60.00 | X-H torsion

> <Gold.Protein.ActiveResidues>
 GLU87   ILE88   VAL90   ASN91   ALA92   ASP94   ASN95   ARG98   ILE118  ASN120 
 LYS123  GLY124  ILE125  ILE141  PHE142  THR147  SER148  SER149  ASN150  TYR151 
 GLY160  GLY161  ARG162  ASN163  GLY164  TYR165  GLY166  ALA167  LYS168  LEU169 
 THR181  THR215  ILE217  ILE317  GLN376  LYS378  ILE33   TYR34   MG903  

> <Gold.Protein.RotatedAtoms>
   40.3710    3.9658   42.7214 H   0  0  0  0  0  0  0  0  0  0  0  0  # atno 6899 bound_to 962 
   42.7653   -2.8394   38.6240 H   0  0  0  0  0  0  0  0  0  0  0  0  # atno 6908 bound_to 969 
   37.9895   -5.7294   40.4340 H   0  0  0  0  0  0  0  0  0  0  0  0  # atno 6912 bound_to 975 
   46.9760    1.3401   39.3597 H   0  0  0  0  0  0  0  0  0  0  0  0  # atno 6928 bound_to 995 
   28.0334   -0.1638   44.7590 H   0  0  0  0  0  0  0  0  0  0  0  0  # atno 7137 bound_to 1220
   28.4496   -0.4157   41.3345 H   0  0  0  0  0  0  0  0  0  0  0  0  # atno 7410 bound_to 1497
   43.4366    0.7159   30.1943 H   0  0  0  0  0  0  0  0  0  0  0  0  # atno 8924 bound_to 2752
   43.5133   -0.7509   30.9625 H   0  0  0  0  0  0  0  0  0  0  0  0  # atno 8925 bound_to 2752
   44.0645   -0.6004   29.4066 H   0  0  0  0  0  0  0  0  0  0  0  0  # atno 8926 bound_to 2752
   33.9306   -4.4921   45.5453 H   0  0  0  0  0  0  0  0  0  0  0  0  # atno 9165 bound_to 2997
   41.3534   -2.0749   38.3592 LP  0  0  0  0  0  0  0  0  0  0  0  0  # atno 11896 bound_to 969 
   41.5277   -3.0463   39.6602 LP  0  0  0  0  0  0  0  0  0  0  0  0  # atno 11897 bound_to 969 
   38.8130   -4.3754   40.0645 LP  0  0  0  0  0  0  0  0  0  0  0  0  # atno 11898 bound_to 975 
   37.3789   -4.2764   40.8392 LP  0  0  0  0  0  0  0  0  0  0  0  0  # atno 11899 bound_to 975 
   41.3403    3.5549   41.4806 LP  0  0  0  0  0  0  0  0  0  0  0  0  # atno 11904 bound_to 962 
   41.7354    4.8095   42.4483 LP  0  0  0  0  0  0  0  0  0  0  0  0  # atno 11905 bound_to 962 
   34.7268   -5.1775   44.3026 LP  0  0  0  0  0  0  0  0  0  0  0  0  # atno 11912 bound_to 2997
   34.1313   -3.6638   44.1589 LP  0  0  0  0  0  0  0  0  0  0  0  0  # atno 11913 bound_to 2997
   27.1074   -1.3209   41.1700 LP  0  0  0  0  0  0  0  0  0  0  0  0  # atno 11922 bound_to 1497
   27.0806    0.0234   42.0967 LP  0  0  0  0  0  0  0  0  0  0  0  0  # atno 11923 bound_to 1497
   28.2437    0.1037   43.1678 LP  0  0  0  0  0  0  0  0  0  0  0  0  # atno 11930 bound_to 1220
   26.7380   -0.0497   43.7809 LP  0  0  0  0  0  0  0  0  0  0  0  0  # atno 11931 bound_to 1220

$$$$
****|SGG-4|sdf|1|dock53
  -GOLD-   9 72311483D 1   1.00000     0.00000

 46 48  0  0  0  0  0  0  0  0  1 V2000
   38.5838   -1.0645   38.5953 S   0  0  0  0  0  0  0  0  0  0  0  0
   38.9445   -0.5066   37.0110 C   0  0  0  0  0  0  0  0  0  0  0  0
   38.2384    0.5236   36.5988 N   0  0  0  0  0  0  0  0  0  0  0  0
   37.3538    0.9045   37.5878 C   0  0  0  0  0  0  0  0  0  0  0  0
   37.3924    0.1617   38.7526 C   0  0  0  0  0  0  0  0  0  0  0  0
   36.5633    0.2782   39.9907 C   0  0  0  0  0  0  0  0  0  0  0  0
   37.1041   -0.9143   41.2578 S   0  0  0  0  0  0  0  0  0  0  0  0
   35.9575   -2.2056   40.9288 C   0  0  0  0  0  0  0  0  0  0  0  0
   34.7949   -2.2798   41.6807 N   0  0  0  0  0  0  0  0  0  0  0  0
   33.8809   -3.2996   41.4459 C   0  0  0  0  0  0  0  0  0  0  0  0
   32.7018   -3.3756   42.1907 O   0  0  0  0  0  0  0  0  0  0  0  0
   34.1431   -4.2141   40.5070 N   0  0  0  0  0  0  0  0  0  0  0  0
   35.2897   -4.0793   39.8299 C   0  0  0  0  0  0  0  0  0  0  0  0
   35.6535   -5.3367   38.6342 S   0  0  0  0  0  0  0  0  0  0  0  0
   35.2870   -4.3395   37.1671 C   0  0  0  0  0  0  0  0  0  0  0  0
   34.2474   -3.2820   37.4383 C   0  0  0  0  0  0  0  0  0  0  0  0
   32.9195   -3.6321   37.7101 C   0  0  0  0  0  0  0  0  0  0  0  0
   31.9666   -2.6477   37.9908 C   0  0  0  0  0  0  0  0  0  0  0  0
   32.3150   -1.2897   37.9896 C   0  0  0  0  0  0  0  0  0  0  0  0
   33.6436   -0.9429   37.7055 C   0  0  0  0  0  0  0  0  0  0  0  0
   34.5976   -1.9257   37.4303 C   0  0  0  0  0  0  0  0  0  0  0  0
   35.6203   -1.6247   37.2120 H   0  0  0  0  0  0  0  0  0  0  0  0
   33.9504    0.1010   37.7005 H   0  0  0  0  0  0  0  0  0  0  0  0
   31.3140   -0.1969   38.3222 C   0  0  0  0  0  0  0  0  0  0  0  0
   29.9442   -0.8035   38.6335 C   0  0  0  0  0  0  0  0  0  0  0  0
   29.5249   -1.3238   37.7653 H   0  0  0  0  0  0  0  0  0  0  0  0
   30.0130   -1.5270   39.4538 H   0  0  0  0  0  0  0  0  0  0  0  0
   29.2354   -0.0247   38.9343 H   0  0  0  0  0  0  0  0  0  0  0  0
   31.1993    0.8686   37.2287 C   0  0  0  0  0  0  0  0  0  0  0  0
   30.6969    0.4887   36.3327 H   0  0  0  0  0  0  0  0  0  0  0  0
   32.1882    1.2350   36.9323 H   0  0  0  0  0  0  0  0  0  0  0  0
   30.6188    1.7247   37.5901 H   0  0  0  0  0  0  0  0  0  0  0  0
   31.6602    0.3224   39.2262 H   0  0  0  0  0  0  0  0  0  0  0  0
   30.9499   -2.9588   38.2177 H   0  0  0  0  0  0  0  0  0  0  0  0
   32.6162   -4.6768   37.7140 H   0  0  0  0  0  0  0  0  0  0  0  0
   34.9289   -4.9820   36.3533 H   0  0  0  0  0  0  0  0  0  0  0  0
   36.2128   -3.8717   36.8117 H   0  0  0  0  0  0  0  0  0  0  0  0
   36.2094   -3.1206   39.9927 N   0  0  0  0  0  0  0  0  0  0  0  0
   34.6206   -1.5882   42.3963 H   0  0  0  0  0  0  0  0  0  0  0  0
   36.6643    1.2942   40.3904 H   0  0  0  0  0  0  0  0  0  0  0  0
   35.5042    0.1077   39.7693 H   0  0  0  0  0  0  0  0  0  0  0  0
   36.6935    1.7437   37.4027 H   0  0  0  0  0  0  0  0  0  0  0  0
   39.9837   -1.1920   36.1961 C   0  0  0  0  0  0  0  0  0  0  0  0
   40.9356   -1.2186   36.7366 H   0  0  0  0  0  0  0  0  0  0  0  0
   40.1417   -0.6557   35.2551 H   0  0  0  0  0  0  0  0  0  0  0  0
   39.6983   -2.2239   35.9684 H   0  0  0  0  0  0  0  0  0  0  0  0
  1  2  1  0  0  0  0
  1  5  1  0  0  0  0
  2  3  2  0  0  0  0
  2 43  1  0  0  0  0
  3  4  1  0  0  0  0
  4  5  2  0  0  0  0
  4 42  1  0  0  0  0
  5  6  1  0  0  0  0
  6  7  1  0  0  0  0
  6 40  1  0  0  0  0
  6 41  1  0  0  0  0
  7  8  1  0  0  0  0
  8  9  1  0  0  0  0
  8 38  2  0  0  0  0
  9 10  1  0  0  0  0
  9 39  1  0  0  0  0
 10 11  2  0  0  0  0
 10 12  1  0  0  0  0
 12 13  2  0  0  0  0
 13 14  1  0  0  0  0
 13 38  1  0  0  0  0
 14 15  1  0  0  0  0
 15 16  1  0  0  0  0
 15 36  1  0  0  0  0
 15 37  1  0  0  0  0
 16 17  1  0  0  0  0
 16 21  2  0  0  0  0
 17 18  2  0  0  0  0
 17 35  1  0  0  0  0
 18 19  1  0  0  0  0
 18 34  1  0  0  0  0
 19 20  2  0  0  0  0
 19 24  1  0  0  0  0
 20 21  1  0  0  0  0
 20 23  1  0  0  0  0
 21 22  1  0  0  0  0
 24 25  1  0  0  0  0
 24 29  1  0  0  0  0
 24 33  1  0  0  0  0
 25 26  1  0  0  0  0
 25 27  1  0  0  0  0
 25 28  1  0  0  0  0
 29 30  1  0  0  0  0
 29 31  1  0  0  0  0
 29 32  1  0  0  0  0
 43 44  1  0  0  0  0
 43 45  1  0  0  0  0
 43 46  1  0  0  0  0
M  END
> <Gold.Goldscore.Fitness>
67.7756

> <Gold.Goldscore.External.HBond>
1.4847

> <Gold.Protein.ActiveResidues>
 GLU87   ILE88   VAL90   ASN91   ALA92   ASP94   ASN95   ARG98   ILE118  ASN120 
 LYS123  GLY124  ILE125  ILE141  PHE142  THR147  SER148  SER149  ASN150  TYR151 
 GLY160  GLY161  ARG162  ASN163  GLY164  TYR165  GLY166  ALA167  LYS168  LEU169 
 THR181  THR215  ILE217  ILE317  GLN376  LYS378  ILE33   TYR34   MG903  

> <Gold.Goldscore.Internal.HBond>
0.0

> <Gold.Goldscore.Internal.Torsion.Weighted>
-4.6232

> <Gold.Protein.RotatedTorsions>
[ 8833 2752 2751 2750 ] final  -92.65 input   60.00 | X-H torsion
[ 6906  969  968  965 ] final -179.89 input   59.99 | X-H torsion
[ 6910  975  974  971 ] final  -12.12 input   60.00 | X-H torsion
[ 6897  962  961  958 ] final   71.11 input   60.00 | X-H torsion
[ 9084 2997 2996 2994 ] final  -38.60 input   60.00 | X-H torsion
[ 7406 1497 1496 1493 ] final  170.76 input   60.00 | X-H torsion
[ 7140 1220 1219 1216 ] final  115.27 input   60.00 | X-H torsion
[ 6926  995  994  992 ] final   25.13 input   60.0

> <Gold.Goldscore.Constraint.Score>
0.0

> <Gold.Id.Protein>
1ZXM|1ZXM_protein|mol2

> <Gold.Protein.RotatedAtoms>
   40.6750    3.3830   41.8637 H   0  0  0  0  0  0  0  0  0  0  0  0  # atno 6897 bound_to 962 
   42.5663   -2.5035   38.2571 H   0  0  0  0  0  0  0  0  0  0  0  0  # atno 6906 bound_to 969 
   38.8111   -4.3840   40.0676 H   0  0  0  0  0  0  0  0  0  0  0  0  # atno 6910 bound_to 975 
   45.8911    1.1244   38.6740 H   0  0  0  0  0  0  0  0  0  0  0  0  # atno 6926 bound_to 995 
   28.0475    0.1168   43.0607 H   0  0  0  0  0  0  0  0  0  0  0  0  # atno 7140 bound_to 1220
   28.2838   -0.9017   41.0

> <Gold.Version>
5.3.0

> <Gold.Goldscore.Internal.Correction>
-0.0166

> <Gold.Goldscore.Internal.Vdw>
-1.3472

> <Gold.Goldscore.Internal.Vdw.Weighted>
-1.3472

> <Gold.Goldscore.External.HBond.Weighted>
1.4847

> <Gold.Goldscore.External.Vdw.Weighted>
72.2447

> <Gold.Goldscore.Internal.HBond.Weighted>
0.0

> <Gold.Goldscore.Hbonds>
donor molecule, donor type, donor heavy atom, donor atom, acceptor molecule, acceptor atom, score
      L1  H     1    27       P1   757  0.74

> <Gold.Goldscore.External.Vdw>
52.5416

> <Gold.Goldscore.Internal.Torsion>
-4.6232

> <Gold.Goldscore.Internal.Correction.Weighted>
-0.0166

> <Gold.Version>
5.3.0

> <Gold.Id.Protein>
1ZXM|1ZXM_protein|mol2

> <Gold.ASP.Fitness>
27.9470

> <Gold.ASP.ASP>
29.2340

> <Gold.ASP.Map>
-146.1700

> <Gold.ASP.DEClash>
0.3113

> <Gold.ASP.DEInternal>
0.9757

> <Gold.ASP.Internal.Correction>
0.1091

> <Gold.Protein.RotatedTorsions>
[ 8924 2752 2751 2750 ] final   46.35 input   60.00 | X-H torsion
[ 6908  969  968  965 ] final -176.32 input   59.99 | X-H torsion
[ 6912  975  974  971 ] final  -44.40 input   60.00 | X-H torsion
[ 6899  962  961  958 ] final  163.29 input   60.00 | X-H torsion
[ 9165 2997 2996 2994 ] final  -21.35 input   60.00 | X-H torsion
[ 7410 1497 1496 1493 ] final -108.15 input   60.00 | X-H torsion
[ 7137 1220 1219 1216 ] final  -54.63 input   60.00 | X-H torsion
[ 6928  995  994  992 ] final  -72.72 input   60.00 | X-H torsion

> <Gold.Protein.ActiveResidues>
 GLU87   ILE88   VAL90   ASN91   ALA92   ASP94   ASN95   ARG98   ILE118  ASN120 
 LYS123  GLY124  ILE125  ILE141  PHE142  THR147  SER148  SER149  ASN150  TYR151 
 GLY160  GLY161  ARG162  ASN163  GLY164  TYR165  GLY166  ALA167  LYS168  LEU169 
 THR181  THR215  ILE217  ILE317  GLN376  LYS378  ILE33   TYR34   MG903  

> <Gold.Protein.RotatedAtoms>
   40.5096    4.2417   42.8908 H   0  0  0  0  0  0  0  0  0  0  0  0  # atno 6899 bound_to 962 
   42.6002   -2.5390   38.2883 H   0  0  0  0  0  0  0  0  0  0  0  0  # atno 6908 bound_to 969 
   38.5114   -3.9994   40.2496 H   0  0  0  0  0  0  0  0  0  0  0  0  # atno 6912 bound_to 975 
   46.9971    1.3819   39.5123 H   0  0  0  0  0  0  0  0  0  0  0  0  # atno 6928 bound_to 995 
   27.1530   -0.1797   44.6701 H   0  0  0  0  0  0  0  0  0  0  0  0  # atno 7137 bound_to 1220
   28.1768    0.0825   41.7663 H   0  0  0  0  0  0  0  0  0  0  0  0  # atno 7410 bound_to 1497
   43.8745    0.2260   29.3614 H   0  0  0  0  0  0  0  0  0  0  0  0  # atno 8924 bound_to 2752
   43.2760    0.2815   30.9061 H   0  0  0  0  0  0  0  0  0  0  0  0  # atno 8925 bound_to 2752
   43.8639   -1.1429   30.2958 H   0  0  0  0  0  0  0  0  0  0  0  0  # atno 8926 bound_to 2752
   34.2791   -3.8233   43.9708 H   0  0  0  0  0  0  0  0  0  0  0  0  # atno 9165 bound_to 2997
   41.0676   -2.2093   38.7248 LP  0  0  0  0  0  0  0  0  0  0  0  0  # atno 11896 bound_to 969 
   41.9798   -3.2144   39.6326 LP  0  0  0  0  0  0  0  0  0  0  0  0  # atno 11897 bound_to 969 
   37.2300   -4.7699   40.8918 LP  0  0  0  0  0  0  0  0  0  0  0  0  # atno 11898 bound_to 975 
   38.4362   -5.6241   40.1976 LP  0  0  0  0  0  0  0  0  0  0  0  0  # atno 11899 bound_to 975 
   41.0342    3.4142   41.5915 LP  0  0  0  0  0  0  0  0  0  0  0  0  # atno 11904 bound_to 962 
   41.9019    4.6723   42.1668 LP  0  0  0  0  0  0  0  0  0  0  0  0  # atno 11905 bound_to 962 
   33.8379   -4.2267   45.4843 LP  0  0  0  0  0  0  0  0  0  0  0  0  # atno 11912 bound_to 2997
   34.6692   -5.2881   44.5628 LP  0  0  0  0  0  0  0  0  0  0  0  0  # atno 11913 bound_to 2997
   27.7953   -1.2818   40.9657 LP  0  0  0  0  0  0  0  0  0  0  0  0  # atno 11922 bound_to 1497
   26.6675   -0.5175   41.8661 LP  0  0  0  0  0  0  0  0  0  0  0  0  # atno 11923 bound_to 1497
   28.6129   -0.0159   43.9702 LP  0  0  0  0  0  0  0  0  0  0  0  0  # atno 11930 bound_to 1220
   27.2556    0.0859   43.0680 LP  0  0  0  0  0  0  0  0  0  0  0  0  # atno 11931 bound_to 1220

$$$$
****|SGG-4|sdf|1|dock72
  -GOLD-   9 72311493D 1   1.00000     0.00000

 46 48  0  0  0  0  0  0  0  0  1 V2000
   39.8609    0.0509   38.4308 S   0  0  0  0  0  0  0  0  0  0  0  0
   39.5763    0.0035   36.7373 C   0  0  0  0  0  0  0  0  0  0  0  0
   38.4138    0.4772   36.3448 N   0  0  0  0  0  0  0  0  0  0  0  0
   37.6945    0.9072   37.4418 C   0  0  0  0  0  0  0  0  0  0  0  0
   38.3155    0.7604   38.6676 C   0  0  0  0  0  0  0  0  0  0  0  0
   37.8170    1.0850   40.0388 C   0  0  0  0  0  0  0  0  0  0  0  0
   37.9019   -0.3716   41.1303 S   0  0  0  0  0  0  0  0  0  0  0  0
   36.6162   -1.3308   40.4111 C   0  0  0  0  0  0  0  0  0  0  0  0
   36.8098   -1.8778   39.1518 N   0  0  0  0  0  0  0  0  0  0  0  0
   35.8020   -2.6288   38.5594 C   0  0  0  0  0  0  0  0  0  0  0  0
   35.9925   -3.1931   37.2960 O   0  0  0  0  0  0  0  0  0  0  0  0
   34.6439   -2.7997   39.2043 N   0  0  0  0  0  0  0  0  0  0  0  0
   34.5306   -2.2334   40.4118 C   0  0  0  0  0  0  0  0  0  0  0  0
   32.9659   -2.4139   41.2254 S   0  0  0  0  0  0  0  0  0  0  0  0
   32.0203   -2.8836   39.7536 C   0  0  0  0  0  0  0  0  0  0  0  0
   31.5872   -1.6871   38.9450 C   0  0  0  0  0  0  0  0  0  0  0  0
   30.7476   -1.8355   37.8347 C   0  0  0  0  0  0  0  0  0  0  0  0
   30.3251   -0.7185   37.1071 C   0  0  0  0  0  0  0  0  0  0  0  0
   30.7455    0.5710   37.4620 C   0  0  0  0  0  0  0  0  0  0  0  0
   31.5958    0.7138   38.5678 C   0  0  0  0  0  0  0  0  0  0  0  0
   32.0143   -0.4008   39.2987 C   0  0  0  0  0  0  0  0  0  0  0  0
   32.6755   -0.2575   40.1511 H   0  0  0  0  0  0  0  0  0  0  0  0
   31.9381    1.7000   38.8745 H   0  0  0  0  0  0  0  0  0  0  0  0
   30.2801    1.8086   36.7146 C   0  0  0  0  0  0  0  0  0  0  0  0
   29.3244    1.4223   35.5838 C   0  0  0  0  0  0  0  0  0  0  0  0
   29.8192    0.7997   34.8303 H   0  0  0  0  0  0  0  0  0  0  0  0
   28.4673    0.8591   35.9701 H   0  0  0  0  0  0  0  0  0  0  0  0
   28.9377    2.3155   35.0818 H   0  0  0  0  0  0  0  0  0  0  0  0
   31.4350    2.6606   36.1811 C   0  0  0  0  0  0  0  0  0  0  0  0
   31.9511    2.1791   35.3437 H   0  0  0  0  0  0  0  0  0  0  0  0
   32.1736    2.8564   36.9660 H   0  0  0  0  0  0  0  0  0  0  0  0
   31.0622    3.6264   35.8227 H   0  0  0  0  0  0  0  0  0  0  0  0
   29.7239    2.4448   37.4165 H   0  0  0  0  0  0  0  0  0  0  0  0
   29.6564   -0.8708   36.2634 H   0  0  0  0  0  0  0  0  0  0  0  0
   30.4075   -2.8231   37.5307 H   0  0  0  0  0  0  0  0  0  0  0  0
   31.1279   -3.4520   40.0432 H   0  0  0  0  0  0  0  0  0  0  0  0
   32.6299   -3.5527   39.1348 H   0  0  0  0  0  0  0  0  0  0  0  0
   35.4587   -1.5086   41.0479 N   0  0  0  0  0  0  0  0  0  0  0  0
   37.6864   -1.7257   38.6731 H   0  0  0  0  0  0  0  0  0  0  0  0
   38.4372    1.8844   40.4612 H   0  0  0  0  0  0  0  0  0  0  0  0
   36.7829    1.4446   40.0036 H   0  0  0  0  0  0  0  0  0  0  0  0
   36.7069    1.3259   37.2871 H   0  0  0  0  0  0  0  0  0  0  0  0
   40.6038   -0.5634   35.8226 C   0  0  0  0  0  0  0  0  0  0  0  0
   41.5607   -0.0492   35.9590 H   0  0  0  0  0  0  0  0  0  0  0  0
   40.2947   -0.4360   34.7803 H   0  0  0  0  0  0  0  0  0  0  0  0
   40.7655   -1.6291   36.0130 H   0  0  0  0  0  0  0  0  0  0  0  0
  1  2  1  0  0  0  0
  1  5  1  0  0  0  0
  2  3  2  0  0  0  0
  2 43  1  0  0  0  0
  3  4  1  0  0  0  0
  4  5  2  0  0  0  0
  4 42  1  0  0  0  0
  5  6  1  0  0  0  0
  6  7  1  0  0  0  0
  6 40  1  0  0  0  0
  6 41  1  0  0  0  0
  7  8  1  0  0  0  0
  8  9  1  0  0  0  0
  8 38  2  0  0  0  0
  9 10  1  0  0  0  0
  9 39  1  0  0  0  0
 10 11  2  0  0  0  0
 10 12  1  0  0  0  0
 12 13  2  0  0  0  0
 13 14  1  0  0  0  0
 13 38  1  0  0  0  0
 14 15  1  0  0  0  0
 15 16  1  0  0  0  0
 15 36  1  0  0  0  0
 15 37  1  0  0  0  0
 16 17  1  0  0  0  0
 16 21  2  0  0  0  0
 17 18  2  0  0  0  0
 17 35  1  0  0  0  0
 18 19  1  0  0  0  0
 18 34  1  0  0  0  0
 19 20  2  0  0  0  0
 19 24  1  0  0  0  0
 20 21  1  0  0  0  0
 20 23  1  0  0  0  0
 21 22  1  0  0  0  0
 24 25  1  0  0  0  0
 24 29  1  0  0  0  0
 24 33  1  0  0  0  0
 25 26  1  0  0  0  0
 25 27  1  0  0  0  0
 25 28  1  0  0  0  0
 29 30  1  0  0  0  0
 29 31  1  0  0  0  0
 29 32  1  0  0  0  0
 43 44  1  0  0  0  0
 43 45  1  0  0  0  0
 43 46  1  0  0  0  0
M  END
> <Gold.Goldscore.Fitness>
67.7756

> <Gold.Goldscore.External.HBond>
1.4847

> <Gold.Protein.ActiveResidues>
 GLU87   ILE88   VAL90   ASN91   ALA92   ASP94   ASN95   ARG98   ILE118  ASN120 
 LYS123  GLY124  ILE125  ILE141  PHE142  THR147  SER148  SER149  ASN150  TYR151 
 GLY160  GLY161  ARG162  ASN163  GLY164  TYR165  GLY166  ALA167  LYS168  LEU169 
 THR181  THR215  ILE217  ILE317  GLN376  LYS378  ILE33   TYR34   MG903  

> <Gold.Goldscore.Internal.HBond>
0.0

> <Gold.Goldscore.Internal.Torsion.Weighted>
-4.6232

> <Gold.Protein.RotatedTorsions>
[ 8833 2752 2751 2750 ] final  -92.65 input   60.00 | X-H torsion
[ 6906  969  968  965 ] final -179.89 input   59.99 | X-H torsion
[ 6910  975  974  971 ] final  -12.12 input   60.00 | X-H torsion
[ 6897  962  961  958 ] final   71.11 input   60.00 | X-H torsion
[ 9084 2997 2996 2994 ] final  -38.60 input   60.00 | X-H torsion
[ 7406 1497 1496 1493 ] final  170.76 input   60.00 | X-H torsion
[ 7140 1220 1219 1216 ] final  115.27 input   60.00 | X-H torsion
[ 6926  995  994  992 ] final   25.13 input   60.0

> <Gold.Goldscore.Constraint.Score>
0.0

> <Gold.Id.Protein>
1ZXM|1ZXM_protein|mol2

> <Gold.Protein.RotatedAtoms>
   40.6750    3.3830   41.8637 H   0  0  0  0  0  0  0  0  0  0  0  0  # atno 6897 bound_to 962 
   42.5663   -2.5035   38.2571 H   0  0  0  0  0  0  0  0  0  0  0  0  # atno 6906 bound_to 969 
   38.8111   -4.3840   40.0676 H   0  0  0  0  0  0  0  0  0  0  0  0  # atno 6910 bound_to 975 
   45.8911    1.1244   38.6740 H   0  0  0  0  0  0  0  0  0  0  0  0  # atno 6926 bound_to 995 
   28.0475    0.1168   43.0607 H   0  0  0  0  0  0  0  0  0  0  0  0  # atno 7140 bound_to 1220
   28.2838   -0.9017   41.0

> <Gold.Version>
5.3.0

> <Gold.Goldscore.Internal.Correction>
-0.0166

> <Gold.Goldscore.Internal.Vdw>
-1.3472

> <Gold.Goldscore.Internal.Vdw.Weighted>
-1.3472

> <Gold.Goldscore.External.HBond.Weighted>
1.4847

> <Gold.Goldscore.External.Vdw.Weighted>
72.2447

> <Gold.Goldscore.Internal.HBond.Weighted>
0.0

> <Gold.Goldscore.Hbonds>
donor molecule, donor type, donor heavy atom, donor atom, acceptor molecule, acceptor atom, score
      L1  H     1    27       P1   757  0.74

> <Gold.Goldscore.External.Vdw>
52.5416

> <Gold.Goldscore.Internal.Torsion>
-4.6232

> <Gold.Goldscore.Internal.Correction.Weighted>
-0.0166

> <Gold.Version>
5.3.0

> <Gold.Id.Protein>
1ZXM|1ZXM_protein|mol2

> <Gold.ASP.Fitness>
27.7698

> <Gold.ASP.ASP>
29.0220

> <Gold.ASP.Map>
-145.1100

> <Gold.ASP.DEClash>
0.1299

> <Gold.ASP.DEInternal>
1.1222

> <Gold.ASP.Internal.Correction>
0.1091

> <Gold.Protein.RotatedTorsions>
[ 8924 2752 2751 2750 ] final   -6.37 input   60.00 | X-H torsion
[ 6908  969  968  965 ] final -112.46 input   59.99 | X-H torsion
[ 6912  975  974  971 ] final   86.22 input   60.00 | X-H torsion
[ 6899  962  961  958 ] final  -98.11 input   60.00 | X-H torsion
[ 9165 2997 2996 2994 ] final -123.61 input   60.00 | X-H torsion
[ 7410 1497 1496 1493 ] final   17.55 input   60.00 | X-H torsion
[ 7137 1220 1219 1216 ] final -148.62 input   60.00 | X-H torsion
[ 6928  995  994  992 ] final   81.62 input   60.00 | X-H torsion

> <Gold.Protein.ActiveResidues>
 GLU87   ILE88   VAL90   ASN91   ALA92   ASP94   ASN95   ARG98   ILE118  ASN120 
 LYS123  GLY124  ILE125  ILE141  PHE142  THR147  SER148  SER149  ASN150  TYR151 
 GLY160  GLY161  ARG162  ASN163  GLY164  TYR165  GLY166  ALA167  LYS168  LEU169 
 THR181  THR215  ILE217  ILE317  GLN376  LYS378  ILE33   TYR34   MG903  

> <Gold.Protein.RotatedAtoms>
   41.7352    4.8020   42.4445 H   0  0  0  0  0  0  0  0  0  0  0  0  # atno 6899 bound_to 962 
   42.6694   -3.1200   39.0874 H   0  0  0  0  0  0  0  0  0  0  0  0  # atno 6908 bound_to 969 
   38.2928   -5.6863   40.2737 H   0  0  0  0  0  0  0  0  0  0  0  0  # atno 6912 bound_to 975 
   45.2006    1.2505   39.2150 H   0  0  0  0  0  0  0  0  0  0  0  0  # atno 6928 bound_to 995 
   28.4848   -0.0836   44.3676 H   0  0  0  0  0  0  0  0  0  0  0  0  # atno 7137 bound_to 1220
   26.6555   -0.5948   41.8145 H   0  0  0  0  0  0  0  0  0  0  0  0  # atno 7410 bound_to 1497
   44.0645   -0.6010   29.4069 H   0  0  0  0  0  0  0  0  0  0  0  0  # atno 8924 bound_to 2752
   43.4367    0.7159   30.1936 H   0  0  0  0  0  0  0  0  0  0  0  0  # atno 8925 bound_to 2752
   43.5131   -0.7503   30.9628 H   0  0  0  0  0  0  0  0  0  0  0  0  # atno 8926 bound_to 2752
   33.7944   -3.9813   45.3367 H   0  0  0  0  0  0  0  0  0  0  0  0  # atno 9165 bound_to 2997
   41.8481   -2.1089   38.1121 LP  0  0  0  0  0  0  0  0  0  0  0  0  # atno 11896 bound_to 969 
   41.1296   -2.7297   39.4406 LP  0  0  0  0  0  0  0  0  0  0  0  0  # atno 11897 bound_to 969 
   38.6340   -4.0983   40.1758 LP  0  0  0  0  0  0  0  0  0  0  0  0  # atno 11898 bound_to 975 
   37.2524   -4.5969   40.8893 LP  0  0  0  0  0  0  0  0  0  0  0  0  # atno 11899 bound_to 975 
   40.3655    3.9698   42.7264 LP  0  0  0  0  0  0  0  0  0  0  0  0  # atno 11904 bound_to 962 
   41.3363    3.5524   41.4814 LP  0  0  0  0  0  0  0  0  0  0  0  0  # atno 11905 bound_to 962 
   34.5726   -5.3195   44.8351 LP  0  0  0  0  0  0  0  0  0  0  0  0  # atno 11912 bound_to 2997
   34.4226   -4.0362   43.8365 LP  0  0  0  0  0  0  0  0  0  0  0  0  # atno 11913 bound_to 2997
   28.1141    0.1265   41.8203 LP  0  0  0  0  0  0  0  0  0  0  0  0  # atno 11922 bound_to 1497
   27.8810   -1.2437   40.9630 LP  0  0  0  0  0  0  0  0  0  0  0  0  # atno 11923 bound_to 1497
   27.6684    0.1156   42.9742 LP  0  0  0  0  0  0  0  0  0  0  0  0  # atno 11930 bound_to 1220
   26.8587   -0.1425   44.3686 LP  0  0  0  0  0  0  0  0  0  0  0  0  # atno 11931 bound_to 1220

$$$$
****|SGG-4|sdf|1|dock69
  -GOLD-   9 72311493D 1   1.00000     0.00000

 46 48  0  0  0  0  0  0  0  0  1 V2000
   35.8205   -6.9566   40.4206 S   0  0  0  0  0  0  0  0  0  0  0  0
   35.8939   -8.6691   40.3055 C   0  0  0  0  0  0  0  0  0  0  0  0
   35.6111   -9.1700   39.1227 N   0  0  0  0  0  0  0  0  0  0  0  0
   35.3164   -8.1464   38.2445 C   0  0  0  0  0  0  0  0  0  0  0  0
   35.3785   -6.8672   38.7639 C   0  0  0  0  0  0  0  0  0  0  0  0
   35.0920   -5.5535   38.1112 C   0  0  0  0  0  0  0  0  0  0  0  0
   36.6215   -4.5934   37.8686 S   0  0  0  0  0  0  0  0  0  0  0  0
   36.3736   -3.3635   39.1000 C   0  0  0  0  0  0  0  0  0  0  0  0
   37.4052   -2.4826   39.3873 N   0  0  0  0  0  0  0  0  0  0  0  0
   37.2352   -1.5110   40.3657 C   0  0  0  0  0  0  0  0  0  0  0  0
   38.2647   -0.6122   40.6539 O   0  0  0  0  0  0  0  0  0  0  0  0
   36.0809   -1.4484   41.0366 N   0  0  0  0  0  0  0  0  0  0  0  0
   35.1370   -2.3386   40.7076 C   0  0  0  0  0  0  0  0  0  0  0  0
   33.6370   -2.2847   41.6511 S   0  0  0  0  0  0  0  0  0  0  0  0
   32.5636   -2.9899   40.3739 C   0  0  0  0  0  0  0  0  0  0  0  0
   32.0851   -1.9522   39.3906 C   0  0  0  0  0  0  0  0  0  0  0  0
   30.7352   -1.8737   39.0281 C   0  0  0  0  0  0  0  0  0  0  0  0
   30.2929   -0.8894   38.1386 C   0  0  0  0  0  0  0  0  0  0  0  0
   31.1920    0.0285   37.5778 C   0  0  0  0  0  0  0  0  0  0  0  0
   32.5451   -0.0612   37.9347 C   0  0  0  0  0  0  0  0  0  0  0  0
   32.9874   -1.0407   38.8273 C   0  0  0  0  0  0  0  0  0  0  0  0
   34.0441   -1.0855   39.0836 H   0  0  0  0  0  0  0  0  0  0  0  0
   33.2701    0.6375   37.5224 H   0  0  0  0  0  0  0  0  0  0  0  0
   30.7413    1.1303   36.6346 C   0  0  0  0  0  0  0  0  0  0  0  0
   31.7095    2.3138   36.6938 C   0  0  0  0  0  0  0  0  0  0  0  0
   31.7261    2.7741   37.6878 H   0  0  0  0  0  0  0  0  0  0  0  0
   32.7314    1.9965   36.4569 H   0  0  0  0  0  0  0  0  0  0  0  0
   31.4233    3.0844   35.9702 H   0  0  0  0  0  0  0  0  0  0  0  0
   29.3041    1.5923   36.8904 C   0  0  0  0  0  0  0  0  0  0  0  0
   29.2126    2.1613   37.8218 H   0  0  0  0  0  0  0  0  0  0  0  0
   28.6213    0.7376   36.9477 H   0  0  0  0  0  0  0  0  0  0  0  0
   28.9618    2.2413   36.0768 H   0  0  0  0  0  0  0  0  0  0  0  0
   30.7623    0.7352   35.6099 H   0  0  0  0  0  0  0  0  0  0  0  0
   29.2338   -0.8461   37.8967 H   0  0  0  0  0  0  0  0  0  0  0  0
   30.0132   -2.5741   39.4421 H   0  0  0  0  0  0  0  0  0  0  0  0
   31.6890   -3.4648   40.8352 H   0  0  0  0  0  0  0  0  0  0  0  0
   33.1077   -3.7825   39.8465 H   0  0  0  0  0  0  0  0  0  0  0  0
   35.2249   -3.2920   39.7725 N   0  0  0  0  0  0  0  0  0  0  0  0
   38.2760   -2.5544   38.8801 H   0  0  0  0  0  0  0  0  0  0  0  0
   34.6269   -5.7368   37.1353 H   0  0  0  0  0  0  0  0  0  0  0  0
   34.3917   -4.9632   38.7120 H   0  0  0  0  0  0  0  0  0  0  0  0
   35.0587   -8.3942   37.2215 H   0  0  0  0  0  0  0  0  0  0  0  0
   36.2418   -9.4840   41.5008 C   0  0  0  0  0  0  0  0  0  0  0  0
   37.2031   -9.1624   41.9146 H   0  0  0  0  0  0  0  0  0  0  0  0
   36.3254  -10.5406   41.2275 H   0  0  0  0  0  0  0  0  0  0  0  0
   35.4874   -9.3835   42.2876 H   0  0  0  0  0  0  0  0  0  0  0  0
  1  2  1  0  0  0  0
  1  5  1  0  0  0  0
  2  3  2  0  0  0  0
  2 43  1  0  0  0  0
  3  4  1  0  0  0  0
  4  5  2  0  0  0  0
  4 42  1  0  0  0  0
  5  6  1  0  0  0  0
  6  7  1  0  0  0  0
  6 40  1  0  0  0  0
  6 41  1  0  0  0  0
  7  8  1  0  0  0  0
  8  9  1  0  0  0  0
  8 38  2  0  0  0  0
  9 10  1  0  0  0  0
  9 39  1  0  0  0  0
 10 11  2  0  0  0  0
 10 12  1  0  0  0  0
 12 13  2  0  0  0  0
 13 14  1  0  0  0  0
 13 38  1  0  0  0  0
 14 15  1  0  0  0  0
 15 16  1  0  0  0  0
 15 36  1  0  0  0  0
 15 37  1  0  0  0  0
 16 17  1  0  0  0  0
 16 21  2  0  0  0  0
 17 18  2  0  0  0  0
 17 35  1  0  0  0  0
 18 19  1  0  0  0  0
 18 34  1  0  0  0  0
 19 20  2  0  0  0  0
 19 24  1  0  0  0  0
 20 21  1  0  0  0  0
 20 23  1  0  0  0  0
 21 22  1  0  0  0  0
 24 25  1  0  0  0  0
 24 29  1  0  0  0  0
 24 33  1  0  0  0  0
 25 26  1  0  0  0  0
 25 27  1  0  0  0  0
 25 28  1  0  0  0  0
 29 30  1  0  0  0  0
 29 31  1  0  0  0  0
 29 32  1  0  0  0  0
 43 44  1  0  0  0  0
 43 45  1  0  0  0  0
 43 46  1  0  0  0  0
M  END
> <Gold.Goldscore.Fitness>
67.7756

> <Gold.Goldscore.External.HBond>
1.4847

> <Gold.Protein.ActiveResidues>
 GLU87   ILE88   VAL90   ASN91   ALA92   ASP94   ASN95   ARG98   ILE118  ASN120 
 LYS123  GLY124  ILE125  ILE141  PHE142  THR147  SER148  SER149  ASN150  TYR151 
 GLY160  GLY161  ARG162  ASN163  GLY164  TYR165  GLY166  ALA167  LYS168  LEU169 
 THR181  THR215  ILE217  ILE317  GLN376  LYS378  ILE33   TYR34   MG903  

> <Gold.Goldscore.Internal.HBond>
0.0

> <Gold.Goldscore.Internal.Torsion.Weighted>
-4.6232

> <Gold.Protein.RotatedTorsions>
[ 8833 2752 2751 2750 ] final  -92.65 input   60.00 | X-H torsion
[ 6906  969  968  965 ] final -179.89 input   59.99 | X-H torsion
[ 6910  975  974  971 ] final  -12.12 input   60.00 | X-H torsion
[ 6897  962  961  958 ] final   71.11 input   60.00 | X-H torsion
[ 9084 2997 2996 2994 ] final  -38.60 input   60.00 | X-H torsion
[ 7406 1497 1496 1493 ] final  170.76 input   60.00 | X-H torsion
[ 7140 1220 1219 1216 ] final  115.27 input   60.00 | X-H torsion
[ 6926  995  994  992 ] final   25.13 input   60.0

> <Gold.Goldscore.Constraint.Score>
0.0

> <Gold.Id.Protein>
1ZXM|1ZXM_protein|mol2

> <Gold.Protein.RotatedAtoms>
   40.6750    3.3830   41.8637 H   0  0  0  0  0  0  0  0  0  0  0  0  # atno 6897 bound_to 962 
   42.5663   -2.5035   38.2571 H   0  0  0  0  0  0  0  0  0  0  0  0  # atno 6906 bound_to 969 
   38.8111   -4.3840   40.0676 H   0  0  0  0  0  0  0  0  0  0  0  0  # atno 6910 bound_to 975 
   45.8911    1.1244   38.6740 H   0  0  0  0  0  0  0  0  0  0  0  0  # atno 6926 bound_to 995 
   28.0475    0.1168   43.0607 H   0  0  0  0  0  0  0  0  0  0  0  0  # atno 7140 bound_to 1220
   28.2838   -0.9017   41.0

> <Gold.Version>
5.3.0

> <Gold.Goldscore.Internal.Correction>
-0.0166

> <Gold.Goldscore.Internal.Vdw>
-1.3472

> <Gold.Goldscore.Internal.Vdw.Weighted>
-1.3472

> <Gold.Goldscore.External.HBond.Weighted>
1.4847

> <Gold.Goldscore.External.Vdw.Weighted>
72.2447

> <Gold.Goldscore.Internal.HBond.Weighted>
0.0

> <Gold.Goldscore.Hbonds>
donor molecule, donor type, donor heavy atom, donor atom, acceptor molecule, acceptor atom, score
      L1  H     1    27       P1   757  0.74

> <Gold.Goldscore.External.Vdw>
52.5416

> <Gold.Goldscore.Internal.Torsion>
-4.6232

> <Gold.Goldscore.Internal.Correction.Weighted>
-0.0166

> <Gold.Version>
5.3.0

> <Gold.Id.Protein>
1ZXM|1ZXM_protein|mol2

> <Gold.ASP.Fitness>
27.7292

> <Gold.ASP.ASP>
31.2180

> <Gold.ASP.Map>
-156.0900

> <Gold.ASP.DEClash>
1.7324

> <Gold.ASP.DEInternal>
1.7564

> <Gold.ASP.Internal.Correction>
0.1091

> <Gold.Protein.RotatedTorsions>
[ 8924 2752 2751 2750 ] final  -10.45 input   60.00 | X-H torsion
[ 6908  969  968  965 ] final  163.87 input   59.99 | X-H torsion
[ 6912  975  974  971 ] final  141.93 input   60.00 | X-H torsion
[ 6899  962  961  958 ] final    4.40 input   60.00 | X-H torsion
[ 9165 2997 2996 2994 ] final  137.14 input   60.00 | X-H torsion
[ 7410 1497 1496 1493 ] final   76.05 input   60.00 | X-H torsion
[ 7137 1220 1219 1216 ] final  -53.22 input   60.00 | X-H torsion
[ 6928  995  994  992 ] final  -78.71 input   60.00 | X-H torsion

> <Gold.Protein.ActiveResidues>
 GLU87   ILE88   VAL90   ASN91   ALA92   ASP94   ASN95   ARG98   ILE118  ASN120 
 LYS123  GLY124  ILE125  ILE141  PHE142  THR147  SER148  SER149  ASN150  TYR151 
 GLY160  GLY161  ARG162  ASN163  GLY164  TYR165  GLY166  ALA167  LYS168  LEU169 
 THR181  THR215  ILE217  ILE317  GLN376  LYS378  ILE33   TYR34   MG903  

> <Gold.Protein.RotatedAtoms>
   41.5640    3.7250   41.4733 H   0  0  0  0  0  0  0  0  0  0  0  0  # atno 6899 bound_to 962 
   42.3807   -2.3505   38.1470 H   0  0  0  0  0  0  0  0  0  0  0  0  # atno 6908 bound_to 969 
   37.5371   -5.5337   40.6875 H   0  0  0  0  0  0  0  0  0  0  0  0  # atno 6912 bound_to 975 
   46.9966    1.4073   39.6068 H   0  0  0  0  0  0  0  0  0  0  0  0  # atno 6928 bound_to 995 
   27.1341   -0.1782   44.6572 H   0  0  0  0  0  0  0  0  0  0  0  0  # atno 7137 bound_to 1220
   26.9676   -1.2527   41.2606 H   0  0  0  0  0  0  0  0  0  0  0  0  # atno 7410 bound_to 1497
   44.0667   -0.6603   29.4405 H   0  0  0  0  0  0  0  0  0  0  0  0  # atno 8924 bound_to 2752
   43.4600    0.7197   30.1296 H   0  0  0  0  0  0  0  0  0  0  0  0  # atno 8925 bound_to 2752
   43.4877   -0.6948   30.9932 H   0  0  0  0  0  0  0  0  0  0  0  0  # atno 8926 bound_to 2752
   34.4238   -5.2446   45.1297 H   0  0  0  0  0  0  0  0  0  0  0  0  # atno 9165 bound_to 2997
   40.9937   -2.3675   38.9980 LP  0  0  0  0  0  0  0  0  0  0  0  0  # atno 11896 bound_to 969 
   42.2748   -3.2460   39.5017 LP  0  0  0  0  0  0  0  0  0  0  0  0  # atno 11897 bound_to 969 
   38.8799   -4.9256   39.9982 LP  0  0  0  0  0  0  0  0  0  0  0  0  # atno 11898 bound_to 975 
   37.7677   -3.9233   40.6502 LP  0  0  0  0  0  0  0  0  0  0  0  0  # atno 11899 bound_to 975 
   41.5423    4.8485   42.6502 LP  0  0  0  0  0  0  0  0  0  0  0  0  # atno 11904 bound_to 962 
   40.3319    3.7584   42.5357 LP  0  0  0  0  0  0  0  0  0  0  0  0  # atno 11905 bound_to 962 
   34.5724   -4.3370   43.7872 LP  0  0  0  0  0  0  0  0  0  0  0  0  # atno 11912 bound_to 2997
   33.7891   -3.7466   45.0928 LP  0  0  0  0  0  0  0  0  0  0  0  0  # atno 11913 bound_to 2997
   27.2378    0.1121   42.1046 LP  0  0  0  0  0  0  0  0  0  0  0  0  # atno 11922 bound_to 1497
   28.4429   -0.5667   41.2366 LP  0  0  0  0  0  0  0  0  0  0  0  0  # atno 11923 bound_to 1497
   28.6111   -0.0197   43.9930 LP  0  0  0  0  0  0  0  0  0  0  0  0  # atno 11930 bound_to 1220
   27.2764    0.0882   43.0582 LP  0  0  0  0  0  0  0  0  0  0  0  0  # atno 11931 bound_to 1220

$$$$
****|SGG-4|sdf|1|dock37
  -GOLD-   9 72311463D 1   1.00000     0.00000

 46 48  0  0  0  0  0  0  0  0  1 V2000
   36.8171   -6.1345   38.0816 S   0  0  0  0  0  0  0  0  0  0  0  0
   35.4868   -7.2216   38.0840 C   0  0  0  0  0  0  0  0  0  0  0  0
   34.3022   -6.6669   38.2212 N   0  0  0  0  0  0  0  0  0  0  0  0
   34.4418   -5.2980   38.3323 C   0  0  0  0  0  0  0  0  0  0  0  0
   35.7356   -4.8155   38.2769 C   0  0  0  0  0  0  0  0  0  0  0  0
   36.2411   -3.4140   38.3966 C   0  0  0  0  0  0  0  0  0  0  0  0
   36.5256   -2.6760   36.7551 S   0  0  0  0  0  0  0  0  0  0  0  0
   37.7995   -1.5415   37.1795 C   0  0  0  0  0  0  0  0  0  0  0  0
   39.0393   -1.6644   36.5708 N   0  0  0  0  0  0  0  0  0  0  0  0
   40.0642   -0.7863   36.9008 C   0  0  0  0  0  0  0  0  0  0  0  0
   41.3127   -0.8954   36.2843 O   0  0  0  0  0  0  0  0  0  0  0  0
   39.8491    0.1593   37.8206 N   0  0  0  0  0  0  0  0  0  0  0  0
   38.6291    0.2082   38.3690 C   0  0  0  0  0  0  0  0  0  0  0  0
   38.3797    1.4252   39.6339 S   0  0  0  0  0  0  0  0  0  0  0  0
   37.2321    0.4478   40.6381 C   0  0  0  0  0  0  0  0  0  0  0  0
   35.8644    0.3483   40.0118 C   0  0  0  0  0  0  0  0  0  0  0  0
   35.5321    1.1110   38.8859 C   0  0  0  0  0  0  0  0  0  0  0  0
   34.2719    0.9915   38.2915 C   0  0  0  0  0  0  0  0  0  0  0  0
   33.3088    0.1197   38.8187 C   0  0  0  0  0  0  0  0  0  0  0  0
   33.6419   -0.6337   39.9534 C   0  0  0  0  0  0  0  0  0  0  0  0
   34.9025   -0.5192   40.5449 C   0  0  0  0  0  0  0  0  0  0  0  0
   35.1305   -1.1163   41.4257 H   0  0  0  0  0  0  0  0  0  0  0  0
   32.9208   -1.3237   40.3866 H   0  0  0  0  0  0  0  0  0  0  0  0
   31.9426   -0.0594   38.1797 C   0  0  0  0  0  0  0  0  0  0  0  0
   31.2834    1.3001   37.9376 C   0  0  0  0  0  0  0  0  0  0  0  0
   31.0948    1.8317   38.8769 H   0  0  0  0  0  0  0  0  0  0  0  0
   31.9201    1.9393   37.3155 H   0  0  0  0  0  0  0  0  0  0  0  0
   30.3256    1.1792   37.4206 H   0  0  0  0  0  0  0  0  0  0  0  0
   31.0163   -0.9756   38.9840 C   0  0  0  0  0  0  0  0  0  0  0  0
   30.6744   -0.5055   39.9123 H   0  0  0  0  0  0  0  0  0  0  0  0
   31.5206   -1.9123   39.2451 H   0  0  0  0  0  0  0  0  0  0  0  0
   30.1253   -1.2262   38.3978 H   0  0  0  0  0  0  0  0  0  0  0  0
   32.0812   -0.5399   37.2016 H   0  0  0  0  0  0  0  0  0  0  0  0
   34.0570    1.5845   37.4059 H   0  0  0  0  0  0  0  0  0  0  0  0
   36.2556    1.8001   38.4556 H   0  0  0  0  0  0  0  0  0  0  0  0
   37.1290    0.8931   41.6353 H   0  0  0  0  0  0  0  0  0  0  0  0
   37.6501   -0.5552   40.7854 H   0  0  0  0  0  0  0  0  0  0  0  0
   37.5934   -0.5937   38.0940 N   0  0  0  0  0  0  0  0  0  0  0  0
   39.1879   -2.3946   35.8885 H   0  0  0  0  0  0  0  0  0  0  0  0
   35.4972   -2.8138   38.9338 H   0  0  0  0  0  0  0  0  0  0  0  0
   37.1749   -3.3829   38.9684 H   0  0  0  0  0  0  0  0  0  0  0  0
   33.5524   -4.6907   38.4541 H   0  0  0  0  0  0  0  0  0  0  0  0
   35.7181   -8.6857   37.9545 C   0  0  0  0  0  0  0  0  0  0  0  0
   36.2902   -8.9022   37.0465 H   0  0  0  0  0  0  0  0  0  0  0  0
   34.7627   -9.2157   37.8893 H   0  0  0  0  0  0  0  0  0  0  0  0
   36.2805   -9.0794   38.8072 H   0  0  0  0  0  0  0  0  0  0  0  0
  1  2  1  0  0  0  0
  1  5  1  0  0  0  0
  2  3  2  0  0  0  0
  2 43  1  0  0  0  0
  3  4  1  0  0  0  0
  4  5  2  0  0  0  0
  4 42  1  0  0  0  0
  5  6  1  0  0  0  0
  6  7  1  0  0  0  0
  6 40  1  0  0  0  0
  6 41  1  0  0  0  0
  7  8  1  0  0  0  0
  8  9  1  0  0  0  0
  8 38  2  0  0  0  0
  9 10  1  0  0  0  0
  9 39  1  0  0  0  0
 10 11  2  0  0  0  0
 10 12  1  0  0  0  0
 12 13  2  0  0  0  0
 13 14  1  0  0  0  0
 13 38  1  0  0  0  0
 14 15  1  0  0  0  0
 15 16  1  0  0  0  0
 15 36  1  0  0  0  0
 15 37  1  0  0  0  0
 16 17  1  0  0  0  0
 16 21  2  0  0  0  0
 17 18  2  0  0  0  0
 17 35  1  0  0  0  0
 18 19  1  0  0  0  0
 18 34  1  0  0  0  0
 19 20  2  0  0  0  0
 19 24  1  0  0  0  0
 20 21  1  0  0  0  0
 20 23  1  0  0  0  0
 21 22  1  0  0  0  0
 24 25  1  0  0  0  0
 24 29  1  0  0  0  0
 24 33  1  0  0  0  0
 25 26  1  0  0  0  0
 25 27  1  0  0  0  0
 25 28  1  0  0  0  0
 29 30  1  0  0  0  0
 29 31  1  0  0  0  0
 29 32  1  0  0  0  0
 43 44  1  0  0  0  0
 43 45  1  0  0  0  0
 43 46  1  0  0  0  0
M  END
> <Gold.Goldscore.Fitness>
67.7756

> <Gold.Goldscore.External.HBond>
1.4847

> <Gold.Protein.ActiveResidues>
 GLU87   ILE88   VAL90   ASN91   ALA92   ASP94   ASN95   ARG98   ILE118  ASN120 
 LYS123  GLY124  ILE125  ILE141  PHE142  THR147  SER148  SER149  ASN150  TYR151 
 GLY160  GLY161  ARG162  ASN163  GLY164  TYR165  GLY166  ALA167  LYS168  LEU169 
 THR181  THR215  ILE217  ILE317  GLN376  LYS378  ILE33   TYR34   MG903  

> <Gold.Goldscore.Internal.HBond>
0.0

> <Gold.Goldscore.Internal.Torsion.Weighted>
-4.6232

> <Gold.Protein.RotatedTorsions>
[ 8833 2752 2751 2750 ] final  -92.65 input   60.00 | X-H torsion
[ 6906  969  968  965 ] final -179.89 input   59.99 | X-H torsion
[ 6910  975  974  971 ] final  -12.12 input   60.00 | X-H torsion
[ 6897  962  961  958 ] final   71.11 input   60.00 | X-H torsion
[ 9084 2997 2996 2994 ] final  -38.60 input   60.00 | X-H torsion
[ 7406 1497 1496 1493 ] final  170.76 input   60.00 | X-H torsion
[ 7140 1220 1219 1216 ] final  115.27 input   60.00 | X-H torsion
[ 6926  995  994  992 ] final   25.13 input   60.0

> <Gold.Goldscore.Constraint.Score>
0.0

> <Gold.Id.Protein>
1ZXM|1ZXM_protein|mol2

> <Gold.Protein.RotatedAtoms>
   40.6750    3.3830   41.8637 H   0  0  0  0  0  0  0  0  0  0  0  0  # atno 6897 bound_to 962 
   42.5663   -2.5035   38.2571 H   0  0  0  0  0  0  0  0  0  0  0  0  # atno 6906 bound_to 969 
   38.8111   -4.3840   40.0676 H   0  0  0  0  0  0  0  0  0  0  0  0  # atno 6910 bound_to 975 
   45.8911    1.1244   38.6740 H   0  0  0  0  0  0  0  0  0  0  0  0  # atno 6926 bound_to 995 
   28.0475    0.1168   43.0607 H   0  0  0  0  0  0  0  0  0  0  0  0  # atno 7140 bound_to 1220
   28.2838   -0.9017   41.0

> <Gold.Version>
5.3.0

> <Gold.Goldscore.Internal.Correction>
-0.0166

> <Gold.Goldscore.Internal.Vdw>
-1.3472

> <Gold.Goldscore.Internal.Vdw.Weighted>
-1.3472

> <Gold.Goldscore.External.HBond.Weighted>
1.4847

> <Gold.Goldscore.External.Vdw.Weighted>
72.2447

> <Gold.Goldscore.Internal.HBond.Weighted>
0.0

> <Gold.Goldscore.Hbonds>
donor molecule, donor type, donor heavy atom, donor atom, acceptor molecule, acceptor atom, score
      L1  H     1    27       P1   757  0.74

> <Gold.Goldscore.External.Vdw>
52.5416

> <Gold.Goldscore.Internal.Torsion>
-4.6232

> <Gold.Goldscore.Internal.Correction.Weighted>
-0.0166

> <Gold.Version>
5.3.0

> <Gold.Id.Protein>
1ZXM|1ZXM_protein|mol2

> <Gold.ASP.Fitness>
27.7021

> <Gold.ASP.ASP>
33.8640

> <Gold.ASP.Map>
-169.3200

> <Gold.ASP.DEClash>
2.3047

> <Gold.ASP.DEInternal>
3.8572

> <Gold.ASP.Internal.Correction>
0.1091

> <Gold.Protein.RotatedTorsions>
[ 8924 2752 2751 2750 ] final  -64.57 input   60.00 | X-H torsion
[ 6908  969  968  965 ] final   52.36 input   59.99 | X-H torsion
[ 6912  975  974  971 ] final  -96.87 input   60.00 | X-H torsion
[ 6899  962  961  958 ] final  155.18 input   60.00 | X-H torsion
[ 9165 2997 2996 2994 ] final  -45.07 input   60.00 | X-H torsion
[ 7410 1497 1496 1493 ] final  179.57 input   60.00 | X-H torsion
[ 7137 1220 1219 1216 ] final  -70.95 input   60.00 | X-H torsion
[ 6928  995  994  992 ] final   68.09 input   60.00 | X-H torsion

> <Gold.Protein.ActiveResidues>
 GLU87   ILE88   VAL90   ASN91   ALA92   ASP94   ASN95   ARG98   ILE118  ASN120 
 LYS123  GLY124  ILE125  ILE141  PHE142  THR147  SER148  SER149  ASN150  TYR151 
 GLY160  GLY161  ARG162  ASN163  GLY164  TYR165  GLY166  ALA167  LYS168  LEU169 
 THR181  THR215  ILE217  ILE317  GLN376  LYS378  ILE33   TYR34   MG903  

> <Gold.Protein.RotatedAtoms>
   40.4459    4.1387   42.8376 H   0  0  0  0  0  0  0  0  0  0  0  0  # atno 6899 bound_to 962 
   41.0195   -2.2950   38.8818 H   0  0  0  0  0  0  0  0  0  0  0  0  # atno 6908 bound_to 969 
   37.7870   -3.9223   40.6425 H   0  0  0  0  0  0  0  0  0  0  0  0  # atno 6912 bound_to 975 
   45.3099    1.2036   39.0293 H   0  0  0  0  0  0  0  0  0  0  0  0  # atno 6928 bound_to 995 
   27.3926   -0.1903   44.7846 H   0  0  0  0  0  0  0  0  0  0  0  0  # atno 7137 bound_to 1220
   28.3550   -0.7886   41.1117 H   0  0  0  0  0  0  0  0  0  0  0  0  # atno 7410 bound_to 1497
   43.9160   -1.1364   30.1538 H   0  0  0  0  0  0  0  0  0  0  0  0  # atno 8924 bound_to 2752
   43.8184    0.3502   29.4273 H   0  0  0  0  0  0  0  0  0  0  0  0  # atno 8925 bound_to 2752
   43.2800    0.1506   30.9822 H   0  0  0  0  0  0  0  0  0  0  0  0  # atno 8926 bound_to 2752
   34.0860   -3.6310   44.2425 H   0  0  0  0  0  0  0  0  0  0  0  0  # atno 9165 bound_to 2997
   42.1520   -3.2410   39.5679 LP  0  0  0  0  0  0  0  0  0  0  0  0  # atno 11896 bound_to 969 
   42.4872   -2.4285   38.1917 LP  0  0  0  0  0  0  0  0  0  0  0  0  # atno 11897 bound_to 969 
   37.5190   -5.5265   40.6950 LP  0  0  0  0  0  0  0  0  0  0  0  0  # atno 11898 bound_to 975 
   38.8768   -4.9451   39.9988 LP  0  0  0  0  0  0  0  0  0  0  0  0  # atno 11899 bound_to 975 
   41.1491    3.4561   41.5385 LP  0  0  0  0  0  0  0  0  0  0  0  0  # atno 11904 bound_to 962 
   41.8512    4.7342   42.2734 LP  0  0  0  0  0  0  0  0  0  0  0  0  # atno 11905 bound_to 962 
   33.9648   -4.5862   45.5544 LP  0  0  0  0  0  0  0  0  0  0  0  0  # atno 11912 bound_to 2997
   34.7368   -5.1223   44.2190 LP  0  0  0  0  0  0  0  0  0  0  0  0  # atno 11913 bound_to 2997
   26.7907   -1.1193   41.4139 LP  0  0  0  0  0  0  0  0  0  0  0  0  # atno 11922 bound_to 1497
   27.4927    0.1974   42.0772 LP  0  0  0  0  0  0  0  0  0  0  0  0  # atno 11923 bound_to 1497
   28.5922    0.0268   43.7068 LP  0  0  0  0  0  0  0  0  0  0  0  0  # atno 11930 bound_to 1220
   27.0349    0.0538   43.2161 LP  0  0  0  0  0  0  0  0  0  0  0  0  # atno 11931 bound_to 1220

$$$$
****|SGG-4|sdf|1|dock29
  -GOLD-   9 72311463D 1   1.00000     0.00000

 46 48  0  0  0  0  0  0  0  0  1 V2000
   36.8963   -6.6780   37.7164 S   0  0  0  0  0  0  0  0  0  0  0  0
   35.7909   -6.8766   39.0165 C   0  0  0  0  0  0  0  0  0  0  0  0
   35.0738   -5.8158   39.3173 N   0  0  0  0  0  0  0  0  0  0  0  0
   35.4102   -4.7751   38.4750 C   0  0  0  0  0  0  0  0  0  0  0  0
   36.3830   -5.0500   37.5326 C   0  0  0  0  0  0  0  0  0  0  0  0
   36.9985   -4.1581   36.5033 C   0  0  0  0  0  0  0  0  0  0  0  0
   36.1723   -2.5345   36.4625 S   0  0  0  0  0  0  0  0  0  0  0  0
   37.5076   -1.5314   37.0112 C   0  0  0  0  0  0  0  0  0  0  0  0
   38.6964   -1.5458   36.2976 N   0  0  0  0  0  0  0  0  0  0  0  0
   39.7688   -0.7703   36.7207 C   0  0  0  0  0  0  0  0  0  0  0  0
   40.9662   -0.7698   36.0018 O   0  0  0  0  0  0  0  0  0  0  0  0
   39.6490   -0.0308   37.8276 N   0  0  0  0  0  0  0  0  0  0  0  0
   38.4733   -0.0768   38.4657 C   0  0  0  0  0  0  0  0  0  0  0  0
   38.3524    0.8578   39.9674 S   0  0  0  0  0  0  0  0  0  0  0  0
   36.8817    1.8075   39.5023 C   0  0  0  0  0  0  0  0  0  0  0  0
   35.6382    0.9560   39.4644 C   0  0  0  0  0  0  0  0  0  0  0  0
   34.7260    1.0623   38.4079 C   0  0  0  0  0  0  0  0  0  0  0  0
   33.5899    0.2480   38.3633 C   0  0  0  0  0  0  0  0  0  0  0  0
   33.3305   -0.6795   39.3822 C   0  0  0  0  0  0  0  0  0  0  0  0
   34.2409   -0.7744   40.4444 C   0  0  0  0  0  0  0  0  0  0  0  0
   35.3790    0.0347   40.4873 C   0  0  0  0  0  0  0  0  0  0  0  0
   36.0660   -0.0615   41.3258 H   0  0  0  0  0  0  0  0  0  0  0  0
   34.0738   -1.4864   41.2500 H   0  0  0  0  0  0  0  0  0  0  0  0
   32.1246   -1.6022   39.3492 C   0  0  0  0  0  0  0  0  0  0  0  0
   30.8327   -0.7896   39.2391 C   0  0  0  0  0  0  0  0  0  0  0  0
   30.6814   -0.1488   40.1148 H   0  0  0  0  0  0  0  0  0  0  0  0
   30.8497   -0.1442   38.3535 H   0  0  0  0  0  0  0  0  0  0  0  0
   29.9650   -1.4521   39.1524 H   0  0  0  0  0  0  0  0  0  0  0  0
   32.0638   -2.5578   40.5439 C   0  0  0  0  0  0  0  0  0  0  0  0
   31.8156   -2.0389   41.4759 H   0  0  0  0  0  0  0  0  0  0  0  0
   33.0219   -3.0694   40.6865 H   0  0  0  0  0  0  0  0  0  0  0  0
   31.2960   -3.3224   40.3818 H   0  0  0  0  0  0  0  0  0  0  0  0
   32.1982   -2.2317   38.4520 H   0  0  0  0  0  0  0  0  0  0  0  0
   32.9149    0.3442   37.5165 H   0  0  0  0  0  0  0  0  0  0  0  0
   34.8962    1.7755   37.6043 H   0  0  0  0  0  0  0  0  0  0  0  0
   37.0235    2.2643   38.5152 H   0  0  0  0  0  0  0  0  0  0  0  0
   36.7489    2.6324   40.2124 H   0  0  0  0  0  0  0  0  0  0  0  0
   37.3965   -0.7888   38.1126 N   0  0  0  0  0  0  0  0  0  0  0  0
   38.7734   -2.1223   35.4715 H   0  0  0  0  0  0  0  0  0  0  0  0
   38.0576   -4.0137   36.7474 H   0  0  0  0  0  0  0  0  0  0  0  0
   36.9416   -4.6124   35.5082 H   0  0  0  0  0  0  0  0  0  0  0  0
   34.9066   -3.8230   38.5947 H   0  0  0  0  0  0  0  0  0  0  0  0
   35.7046   -8.1785   39.7316 C   0  0  0  0  0  0  0  0  0  0  0  0
   35.4963   -8.9884   39.0248 H   0  0  0  0  0  0  0  0  0  0  0  0
   34.8953   -8.1531   40.4680 H   0  0  0  0  0  0  0  0  0  0  0  0
   36.6408   -8.4154   40.2469 H   0  0  0  0  0  0  0  0  0  0  0  0
  1  2  1  0  0  0  0
  1  5  1  0  0  0  0
  2  3  2  0  0  0  0
  2 43  1  0  0  0  0
  3  4  1  0  0  0  0
  4  5  2  0  0  0  0
  4 42  1  0  0  0  0
  5  6  1  0  0  0  0
  6  7  1  0  0  0  0
  6 40  1  0  0  0  0
  6 41  1  0  0  0  0
  7  8  1  0  0  0  0
  8  9  1  0  0  0  0
  8 38  2  0  0  0  0
  9 10  1  0  0  0  0
  9 39  1  0  0  0  0
 10 11  2  0  0  0  0
 10 12  1  0  0  0  0
 12 13  2  0  0  0  0
 13 14  1  0  0  0  0
 13 38  1  0  0  0  0
 14 15  1  0  0  0  0
 15 16  1  0  0  0  0
 15 36  1  0  0  0  0
 15 37  1  0  0  0  0
 16 17  1  0  0  0  0
 16 21  2  0  0  0  0
 17 18  2  0  0  0  0
 17 35  1  0  0  0  0
 18 19  1  0  0  0  0
 18 34  1  0  0  0  0
 19 20  2  0  0  0  0
 19 24  1  0  0  0  0
 20 21  1  0  0  0  0
 20 23  1  0  0  0  0
 21 22  1  0  0  0  0
 24 25  1  0  0  0  0
 24 29  1  0  0  0  0
 24 33  1  0  0  0  0
 25 26  1  0  0  0  0
 25 27  1  0  0  0  0
 25 28  1  0  0  0  0
 29 30  1  0  0  0  0
 29 31  1  0  0  0  0
 29 32  1  0  0  0  0
 43 44  1  0  0  0  0
 43 45  1  0  0  0  0
 43 46  1  0  0  0  0
M  END
> <Gold.Goldscore.Fitness>
67.7756

> <Gold.Goldscore.External.HBond>
1.4847

> <Gold.Protein.ActiveResidues>
 GLU87   ILE88   VAL90   ASN91   ALA92   ASP94   ASN95   ARG98   ILE118  ASN120 
 LYS123  GLY124  ILE125  ILE141  PHE142  THR147  SER148  SER149  ASN150  TYR151 
 GLY160  GLY161  ARG162  ASN163  GLY164  TYR165  GLY166  ALA167  LYS168  LEU169 
 THR181  THR215  ILE217  ILE317  GLN376  LYS378  ILE33   TYR34   MG903  

> <Gold.Goldscore.Internal.HBond>
0.0

> <Gold.Goldscore.Internal.Torsion.Weighted>
-4.6232

> <Gold.Protein.RotatedTorsions>
[ 8833 2752 2751 2750 ] final  -92.65 input   60.00 | X-H torsion
[ 6906  969  968  965 ] final -179.89 input   59.99 | X-H torsion
[ 6910  975  974  971 ] final  -12.12 input   60.00 | X-H torsion
[ 6897  962  961  958 ] final   71.11 input   60.00 | X-H torsion
[ 9084 2997 2996 2994 ] final  -38.60 input   60.00 | X-H torsion
[ 7406 1497 1496 1493 ] final  170.76 input   60.00 | X-H torsion
[ 7140 1220 1219 1216 ] final  115.27 input   60.00 | X-H torsion
[ 6926  995  994  992 ] final   25.13 input   60.0

> <Gold.Goldscore.Constraint.Score>
0.0

> <Gold.Id.Protein>
1ZXM|1ZXM_protein|mol2

> <Gold.Protein.RotatedAtoms>
   40.6750    3.3830   41.8637 H   0  0  0  0  0  0  0  0  0  0  0  0  # atno 6897 bound_to 962 
   42.5663   -2.5035   38.2571 H   0  0  0  0  0  0  0  0  0  0  0  0  # atno 6906 bound_to 969 
   38.8111   -4.3840   40.0676 H   0  0  0  0  0  0  0  0  0  0  0  0  # atno 6910 bound_to 975 
   45.8911    1.1244   38.6740 H   0  0  0  0  0  0  0  0  0  0  0  0  # atno 6926 bound_to 995 
   28.0475    0.1168   43.0607 H   0  0  0  0  0  0  0  0  0  0  0  0  # atno 7140 bound_to 1220
   28.2838   -0.9017   41.0

> <Gold.Version>
5.3.0

> <Gold.Goldscore.Internal.Correction>
-0.0166

> <Gold.Goldscore.Internal.Vdw>
-1.3472

> <Gold.Goldscore.Internal.Vdw.Weighted>
-1.3472

> <Gold.Goldscore.External.HBond.Weighted>
1.4847

> <Gold.Goldscore.External.Vdw.Weighted>
72.2447

> <Gold.Goldscore.Internal.HBond.Weighted>
0.0

> <Gold.Goldscore.Hbonds>
donor molecule, donor type, donor heavy atom, donor atom, acceptor molecule, acceptor atom, score
      L1  H     1    27       P1   757  0.74

> <Gold.Goldscore.External.Vdw>
52.5416

> <Gold.Goldscore.Internal.Torsion>
-4.6232

> <Gold.Goldscore.Internal.Correction.Weighted>
-0.0166

> <Gold.Version>
5.3.0

> <Gold.Id.Protein>
1ZXM|1ZXM_protein|mol2

> <Gold.ASP.Fitness>
27.6571

> <Gold.ASP.ASP>
31.5660

> <Gold.ASP.Map>
-157.8300

> <Gold.ASP.DEClash>
1.9888

> <Gold.ASP.DEInternal>
1.9201

> <Gold.ASP.Internal.Correction>
0.1091

> <Gold.Protein.RotatedTorsions>
[ 8924 2752 2751 2750 ] final   64.42 input   60.00 | X-H torsion
[ 6908  969  968  965 ] final -129.41 input   59.99 | X-H torsion
[ 6912  975  974  971 ] final   69.84 input   60.00 | X-H torsion
[ 6899  962  961  958 ] final   99.49 input   60.00 | X-H torsion
[ 9165 2997 2996 2994 ] final -129.42 input   60.00 | X-H torsion
[ 7410 1497 1496 1493 ] final   54.22 input   60.00 | X-H torsion
[ 7137 1220 1219 1216 ] final  -23.26 input   60.00 | X-H torsion
[ 6928  995  994  992 ] final   65.45 input   60.00 | X-H torsion

> <Gold.Protein.ActiveResidues>
 GLU87   ILE88   VAL90   ASN91   ALA92   ASP94   ASN95   ARG98   ILE118  ASN120 
 LYS123  GLY124  ILE125  ILE141  PHE142  THR147  SER148  SER149  ASN150  TYR151 
 GLY160  GLY161  ARG162  ASN163  GLY164  TYR165  GLY166  ALA167  LYS168  LEU169 
 THR181  THR215  ILE217  ILE317  GLN376  LYS378  ILE33   TYR34   MG903  

> <Gold.Protein.RotatedAtoms>
   40.4197    3.5203   42.2196 H   0  0  0  0  0  0  0  0  0  0  0  0  # atno 6899 bound_to 962 
   42.7554   -2.9959   38.8564 H   0  0  0  0  0  0  0  0  0  0  0  0  # atno 6908 bound_to 969 
   38.5066   -5.5697   40.1655 H   0  0  0  0  0  0  0  0  0  0  0  0  # atno 6912 bound_to 975 
   45.3364    1.1954   38.9962 H   0  0  0  0  0  0  0  0  0  0  0  0  # atno 6928 bound_to 995 
   26.8239   -0.1282   44.2890 H   0  0  0  0  0  0  0  0  0  0  0  0  # atno 7137 bound_to 1220
   26.7522   -1.0590   41.4651 H   0  0  0  0  0  0  0  0  0  0  0  0  # atno 7410 bound_to 1497
   43.7592    0.4595   29.5115 H   0  0  0  0  0  0  0  0  0  0  0  0  # atno 8924 bound_to 2752
   43.2936    0.0120   31.0380 H   0  0  0  0  0  0  0  0  0  0  0  0  # atno 8925 bound_to 2752
   43.9616   -1.1069   30.0138 H   0  0  0  0  0  0  0  0  0  0  0  0  # atno 8926 bound_to 2752
   33.8056   -4.0581   45.3912 H   0  0  0  0  0  0  0  0  0  0  0  0  # atno 9165 bound_to 2997
   41.5897   -2.0660   38.2049 LP  0  0  0  0  0  0  0  0  0  0  0  0  # atno 11896 bound_to 969 
   41.3014   -2.8975   39.5804 LP  0  0  0  0  0  0  0  0  0  0  0  0  # atno 11897 bound_to 969 
   38.4414   -3.9483   40.2874 LP  0  0  0  0  0  0  0  0  0  0  0  0  # atno 11898 bound_to 975 
   37.2297   -4.8644   40.8867 LP  0  0  0  0  0  0  0  0  0  0  0  0  # atno 11899 bound_to 975 
   41.8211    4.0247   41.5643 LP  0  0  0  0  0  0  0  0  0  0  0  0  # atno 11904 bound_to 962 
   41.2055    4.7882   42.8699 LP  0  0  0  0  0  0  0  0  0  0  0  0  # atno 11905 bound_to 962 
   34.6080   -5.3184   44.7463 LP  0  0  0  0  0  0  0  0  0  0  0  0  # atno 11912 bound_to 2997
   34.3760   -3.9600   43.8703 LP  0  0  0  0  0  0  0  0  0  0  0  0  # atno 11913 bound_to 2997
   27.5776    0.2117   42.0585 LP  0  0  0  0  0  0  0  0  0  0  0  0  # atno 11922 bound_to 1497
   28.3200   -0.8614   41.0767 LP  0  0  0  0  0  0  0  0  0  0  0  0  # atno 11923 bound_to 1497
   28.4435   -0.0999   44.4437 LP  0  0  0  0  0  0  0  0  0  0  0  0  # atno 11930 bound_to 1220
   27.7564    0.1180   42.9784 LP  0  0  0  0  0  0  0  0  0  0  0  0  # atno 11931 bound_to 1220

$$$$
****|SGG-4|sdf|1|dock80
  -GOLD-   9 72311503D 1   1.00000     0.00000

 46 48  0  0  0  0  0  0  0  0  1 V2000
   36.2804   -2.6738   39.4385 S   0  0  0  0  0  0  0  0  0  0  0  0
   35.2491   -3.9795   39.8663 C   0  0  0  0  0  0  0  0  0  0  0  0
   34.8193   -4.7138   38.8633 N   0  0  0  0  0  0  0  0  0  0  0  0
   35.3299   -4.2237   37.6781 C   0  0  0  0  0  0  0  0  0  0  0  0
   36.1503   -3.1167   37.7849 C   0  0  0  0  0  0  0  0  0  0  0  0
   36.8328   -2.3239   36.7173 C   0  0  0  0  0  0  0  0  0  0  0  0
   38.5335   -1.8904   37.2071 S   0  0  0  0  0  0  0  0  0  0  0  0
   38.2744   -0.2076   37.6444 C   0  0  0  0  0  0  0  0  0  0  0  0
   38.9652    0.7793   36.9577 N   0  0  0  0  0  0  0  0  0  0  0  0
   38.7850    2.1149   37.2954 C   0  0  0  0  0  0  0  0  0  0  0  0
   39.4681    3.1164   36.6016 O   0  0  0  0  0  0  0  0  0  0  0  0
   37.9591    2.4343   38.2966 N   0  0  0  0  0  0  0  0  0  0  0  0
   37.3356    1.4250   38.9163 C   0  0  0  0  0  0  0  0  0  0  0  0
   36.2947    1.8601   40.2839 S   0  0  0  0  0  0  0  0  0  0  0  0
   35.6511    0.1953   40.5921 C   0  0  0  0  0  0  0  0  0  0  0  0
   34.3594   -0.0642   39.8593 C   0  0  0  0  0  0  0  0  0  0  0  0
   34.1268    0.4885   38.5944 C   0  0  0  0  0  0  0  0  0  0  0  0
   32.9391    0.2191   37.9070 C   0  0  0  0  0  0  0  0  0  0  0  0
   31.9493   -0.5952   38.4750 C   0  0  0  0  0  0  0  0  0  0  0  0
   32.1815   -1.1374   39.7471 C   0  0  0  0  0  0  0  0  0  0  0  0
   33.3699   -0.8733   40.4326 C   0  0  0  0  0  0  0  0  0  0  0  0
   33.5201   -1.3076   41.4190 H   0  0  0  0  0  0  0  0  0  0  0  0
   31.4373   -1.7775   40.2164 H   0  0  0  0  0  0  0  0  0  0  0  0
   30.6625   -0.9353   37.7433 C   0  0  0  0  0  0  0  0  0  0  0  0
   29.9356    0.3424   37.3184 C   0  0  0  0  0  0  0  0  0  0  0  0
   29.6261    0.9391   38.1836 H   0  0  0  0  0  0  0  0  0  0  0  0
   30.5804    0.9712   36.6940 H   0  0  0  0  0  0  0  0  0  0  0  0
   29.0393    0.1024   36.7365 H   0  0  0  0  0  0  0  0  0  0  0  0
   29.7325   -1.8452   38.5504 C   0  0  0  0  0  0  0  0  0  0  0  0
   29.2760   -1.3225   39.3977 H   0  0  0  0  0  0  0  0  0  0  0  0
   30.2745   -2.7134   38.9409 H   0  0  0  0  0  0  0  0  0  0  0  0
   28.9179   -2.2150   37.9179 H   0  0  0  0  0  0  0  0  0  0  0  0
   30.9223   -1.4885   36.8306 H   0  0  0  0  0  0  0  0  0  0  0  0
   32.8025    0.6491   36.9178 H   0  0  0  0  0  0  0  0  0  0  0  0
   34.8730    1.1283   38.1283 H   0  0  0  0  0  0  0  0  0  0  0  0
   35.4801    0.0490   41.6657 H   0  0  0  0  0  0  0  0  0  0  0  0
   36.4059   -0.5415   40.2925 H   0  0  0  0  0  0  0  0  0  0  0  0
   37.4508    0.1205   38.6399 N   0  0  0  0  0  0  0  0  0  0  0  0
   39.5966    0.5180   36.2135 H   0  0  0  0  0  0  0  0  0  0  0  0
   36.8671   -2.9220   35.7991 H   0  0  0  0  0  0  0  0  0  0  0  0
   36.2790   -1.4043   36.4991 H   0  0  0  0  0  0  0  0  0  0  0  0
   35.0669   -4.7203   36.7514 H   0  0  0  0  0  0  0  0  0  0  0  0
   34.8841   -4.2076   41.2905 C   0  0  0  0  0  0  0  0  0  0  0  0
   35.7856   -4.3150   41.9024 H   0  0  0  0  0  0  0  0  0  0  0  0
   34.2953   -5.1251   41.3883 H   0  0  0  0  0  0  0  0  0  0  0  0
   34.3025   -3.3726   41.6938 H   0  0  0  0  0  0  0  0  0  0  0  0
  1  2  1  0  0  0  0
  1  5  1  0  0  0  0
  2  3  2  0  0  0  0
  2 43  1  0  0  0  0
  3  4  1  0  0  0  0
  4  5  2  0  0  0  0
  4 42  1  0  0  0  0
  5  6  1  0  0  0  0
  6  7  1  0  0  0  0
  6 40  1  0  0  0  0
  6 41  1  0  0  0  0
  7  8  1  0  0  0  0
  8  9  1  0  0  0  0
  8 38  2  0  0  0  0
  9 10  1  0  0  0  0
  9 39  1  0  0  0  0
 10 11  2  0  0  0  0
 10 12  1  0  0  0  0
 12 13  2  0  0  0  0
 13 14  1  0  0  0  0
 13 38  1  0  0  0  0
 14 15  1  0  0  0  0
 15 16  1  0  0  0  0
 15 36  1  0  0  0  0
 15 37  1  0  0  0  0
 16 17  1  0  0  0  0
 16 21  2  0  0  0  0
 17 18  2  0  0  0  0
 17 35  1  0  0  0  0
 18 19  1  0  0  0  0
 18 34  1  0  0  0  0
 19 20  2  0  0  0  0
 19 24  1  0  0  0  0
 20 21  1  0  0  0  0
 20 23  1  0  0  0  0
 21 22  1  0  0  0  0
 24 25  1  0  0  0  0
 24 29  1  0  0  0  0
 24 33  1  0  0  0  0
 25 26  1  0  0  0  0
 25 27  1  0  0  0  0
 25 28  1  0  0  0  0
 29 30  1  0  0  0  0
 29 31  1  0  0  0  0
 29 32  1  0  0  0  0
 43 44  1  0  0  0  0
 43 45  1  0  0  0  0
 43 46  1  0  0  0  0
M  END
> <Gold.Goldscore.Fitness>
67.7756

> <Gold.Goldscore.External.HBond>
1.4847

> <Gold.Protein.ActiveResidues>
 GLU87   ILE88   VAL90   ASN91   ALA92   ASP94   ASN95   ARG98   ILE118  ASN120 
 LYS123  GLY124  ILE125  ILE141  PHE142  THR147  SER148  SER149  ASN150  TYR151 
 GLY160  GLY161  ARG162  ASN163  GLY164  TYR165  GLY166  ALA167  LYS168  LEU169 
 THR181  THR215  ILE217  ILE317  GLN376  LYS378  ILE33   TYR34   MG903  

> <Gold.Goldscore.Internal.HBond>
0.0

> <Gold.Goldscore.Internal.Torsion.Weighted>
-4.6232

> <Gold.Protein.RotatedTorsions>
[ 8833 2752 2751 2750 ] final  -92.65 input   60.00 | X-H torsion
[ 6906  969  968  965 ] final -179.89 input   59.99 | X-H torsion
[ 6910  975  974  971 ] final  -12.12 input   60.00 | X-H torsion
[ 6897  962  961  958 ] final   71.11 input   60.00 | X-H torsion
[ 9084 2997 2996 2994 ] final  -38.60 input   60.00 | X-H torsion
[ 7406 1497 1496 1493 ] final  170.76 input   60.00 | X-H torsion
[ 7140 1220 1219 1216 ] final  115.27 input   60.00 | X-H torsion
[ 6926  995  994  992 ] final   25.13 input   60.0

> <Gold.Goldscore.Constraint.Score>
0.0

> <Gold.Id.Protein>
1ZXM|1ZXM_protein|mol2

> <Gold.Protein.RotatedAtoms>
   40.6750    3.3830   41.8637 H   0  0  0  0  0  0  0  0  0  0  0  0  # atno 6897 bound_to 962 
   42.5663   -2.5035   38.2571 H   0  0  0  0  0  0  0  0  0  0  0  0  # atno 6906 bound_to 969 
   38.8111   -4.3840   40.0676 H   0  0  0  0  0  0  0  0  0  0  0  0  # atno 6910 bound_to 975 
   45.8911    1.1244   38.6740 H   0  0  0  0  0  0  0  0  0  0  0  0  # atno 6926 bound_to 995 
   28.0475    0.1168   43.0607 H   0  0  0  0  0  0  0  0  0  0  0  0  # atno 7140 bound_to 1220
   28.2838   -0.9017   41.0

> <Gold.Version>
5.3.0

> <Gold.Goldscore.Internal.Correction>
-0.0166

> <Gold.Goldscore.Internal.Vdw>
-1.3472

> <Gold.Goldscore.Internal.Vdw.Weighted>
-1.3472

> <Gold.Goldscore.External.HBond.Weighted>
1.4847

> <Gold.Goldscore.External.Vdw.Weighted>
72.2447

> <Gold.Goldscore.Internal.HBond.Weighted>
0.0

> <Gold.Goldscore.Hbonds>
donor molecule, donor type, donor heavy atom, donor atom, acceptor molecule, acceptor atom, score
      L1  H     1    27       P1   757  0.74

> <Gold.Goldscore.External.Vdw>
52.5416

> <Gold.Goldscore.Internal.Torsion>
-4.6232

> <Gold.Goldscore.Internal.Correction.Weighted>
-0.0166

> <Gold.Version>
5.3.0

> <Gold.Id.Protein>
1ZXM|1ZXM_protein|mol2

> <Gold.ASP.Fitness>
27.6455

> <Gold.ASP.ASP>
31.9200

> <Gold.ASP.Map>
-159.6000

> <Gold.ASP.DEClash>
3.2153

> <Gold.ASP.DEInternal>
1.0592

> <Gold.ASP.Internal.Correction>
0.1091

> <Gold.Protein.RotatedTorsions>
[ 8924 2752 2751 2750 ] final   64.84 input   60.00 | X-H torsion
[ 6908  969  968  965 ] final   77.38 input   59.99 | X-H torsion
[ 6912  975  974  971 ] final  -63.42 input   60.00 | X-H torsion
[ 6899  962  961  958 ] final -167.37 input   60.00 | X-H torsion
[ 9165 2997 2996 2994 ] final   33.19 input   60.00 | X-H torsion
[ 7410 1497 1496 1493 ] final  148.77 input   60.00 | X-H torsion
[ 7137 1220 1219 1216 ] final  130.77 input   60.00 | X-H torsion
[ 6928  995  994  992 ] final   92.23 input   60.00 | X-H torsion

> <Gold.Protein.ActiveResidues>
 GLU87   ILE88   VAL90   ASN91   ALA92   ASP94   ASN95   ARG98   ILE118  ASN120 
 LYS123  GLY124  ILE125  ILE141  PHE142  THR147  SER148  SER149  ASN150  TYR151 
 GLY160  GLY161  ARG162  ASN163  GLY164  TYR165  GLY166  ALA167  LYS168  LEU169 
 THR181  THR215  ILE217  ILE317  GLN376  LYS378  ILE33   TYR34   MG903  

> <Gold.Protein.RotatedAtoms>
   40.8353    4.5781   42.9662 H   0  0  0  0  0  0  0  0  0  0  0  0  # atno 6899 bound_to 962 
   41.1819   -2.1316   38.5482 H   0  0  0  0  0  0  0  0  0  0  0  0  # atno 6908 bound_to 969 
   38.2615   -3.8833   40.3901 H   0  0  0  0  0  0  0  0  0  0  0  0  # atno 6912 bound_to 975 
   45.1481    1.2920   39.3746 H   0  0  0  0  0  0  0  0  0  0  0  0  # atno 6928 bound_to 995 
   28.2630    0.1027   43.1917 H   0  0  0  0  0  0  0  0  0  0  0  0  # atno 7137 bound_to 1220
   28.0350   -1.1443   40.9763 H   0  0  0  0  0  0  0  0  0  0  0  0  # atno 7410 bound_to 1497
   43.7564    0.4642   29.5158 H   0  0  0  0  0  0  0  0  0  0  0  0  # atno 8924 bound_to 2752
   43.2945    0.0054   31.0401 H   0  0  0  0  0  0  0  0  0  0  0  0  # atno 8925 bound_to 2752
   43.9635   -1.1050   30.0074 H   0  0  0  0  0  0  0  0  0  0  0  0  # atno 8926 bound_to 2752
   34.6607   -4.5795   43.8346 H   0  0  0  0  0  0  0  0  0  0  0  0  # atno 9165 bound_to 2997
   41.7669   -3.1532   39.6716 LP  0  0  0  0  0  0  0  0  0  0  0  0  # atno 11896 bound_to 969 
   42.7087   -2.6808   38.4240 LP  0  0  0  0  0  0  0  0  0  0  0  0  # atno 11897 bound_to 969 
   37.2608   -5.0781   40.8583 LP  0  0  0  0  0  0  0  0  0  0  0  0  # atno 11898 bound_to 975 
   38.6572   -5.4329   40.0896 LP  0  0  0  0  0  0  0  0  0  0  0  0  # atno 11899 bound_to 975 
   40.6530    3.3824   41.8776 LP  0  0  0  0  0  0  0  0  0  0  0  0  # atno 11904 bound_to 962 
   41.9550    4.3653   41.8047 LP  0  0  0  0  0  0  0  0  0  0  0  0  # atno 11905 bound_to 962 
   33.8314   -3.6279   44.8616 LP  0  0  0  0  0  0  0  0  0  0  0  0  # atno 11912 bound_to 2997
   34.2915   -5.1254   45.3225 LP  0  0  0  0  0  0  0  0  0  0  0  0  # atno 11913 bound_to 2997
   26.6407   -0.7496   41.7166 LP  0  0  0  0  0  0  0  0  0  0  0  0  # atno 11922 bound_to 1497
   27.9650    0.1859   41.9109 LP  0  0  0  0  0  0  0  0  0  0  0  0  # atno 11923 bound_to 1497
   26.7423   -0.0447   43.7517 LP  0  0  0  0  0  0  0  0  0  0  0  0  # atno 11930 bound_to 1220
   28.0082   -0.1697   44.7756 LP  0  0  0  0  0  0  0  0  0  0  0  0  # atno 11931 bound_to 1220

$$$$
****|SGG-4|sdf|1|dock39
  -GOLD-   9 72311463D 1   1.00000     0.00000

 46 48  0  0  0  0  0  0  0  0  1 V2000
   35.9244   -7.1736   40.8935 S   0  0  0  0  0  0  0  0  0  0  0  0
   35.9822   -8.8103   40.3747 C   0  0  0  0  0  0  0  0  0  0  0  0
   35.7880   -9.0040   39.0884 N   0  0  0  0  0  0  0  0  0  0  0  0
   35.5794   -7.7909   38.4635 C   0  0  0  0  0  0  0  0  0  0  0  0
   35.6180   -6.6759   39.2791 C   0  0  0  0  0  0  0  0  0  0  0  0
   35.4036   -5.2354   38.9429 C   0  0  0  0  0  0  0  0  0  0  0  0
   35.5472   -4.9514   37.1488 S   0  0  0  0  0  0  0  0  0  0  0  0
   36.4812   -3.4624   37.1790 C   0  0  0  0  0  0  0  0  0  0  0  0
   37.0248   -2.9860   35.9957 N   0  0  0  0  0  0  0  0  0  0  0  0
   37.7771   -1.8178   35.9988 C   0  0  0  0  0  0  0  0  0  0  0  0
   38.3189   -1.3244   34.8099 O   0  0  0  0  0  0  0  0  0  0  0  0
   37.9864   -1.1738   37.1512 N   0  0  0  0  0  0  0  0  0  0  0  0
   37.4359   -1.7010   38.2514 C   0  0  0  0  0  0  0  0  0  0  0  0
   37.7774   -0.8716   39.7807 S   0  0  0  0  0  0  0  0  0  0  0  0
   36.3082   -1.4549   40.6650 C   0  0  0  0  0  0  0  0  0  0  0  0
   35.0354   -0.8650   40.1130 C   0  0  0  0  0  0  0  0  0  0  0  0
   35.0721    0.1506   39.1502 C   0  0  0  0  0  0  0  0  0  0  0  0
   33.8878    0.6723   38.6200 C   0  0  0  0  0  0  0  0  0  0  0  0
   32.6394    0.2031   39.0521 C   0  0  0  0  0  0  0  0  0  0  0  0
   32.6072   -0.8061   40.0251 C   0  0  0  0  0  0  0  0  0  0  0  0
   33.7896   -1.3319   40.5516 C   0  0  0  0  0  0  0  0  0  0  0  0
   33.7317   -2.1134   41.3066 H   0  0  0  0  0  0  0  0  0  0  0  0
   31.6561   -1.1974   40.3803 H   0  0  0  0  0  0  0  0  0  0  0  0
   31.3347    0.7235   38.4743 C   0  0  0  0  0  0  0  0  0  0  0  0
   30.4670   -0.4373   37.9831 C   0  0  0  0  0  0  0  0  0  0  0  0
   30.9475   -0.9835   37.1638 H   0  0  0  0  0  0  0  0  0  0  0  0
   30.2739   -1.1518   38.7912 H   0  0  0  0  0  0  0  0  0  0  0  0
   29.4996   -0.0718   37.6227 H   0  0  0  0  0  0  0  0  0  0  0  0
   31.5373    1.7571   37.3631 C   0  0  0  0  0  0  0  0  0  0  0  0
   31.9251    1.3050   36.4439 H   0  0  0  0  0  0  0  0  0  0  0  0
   32.2374    2.5389   37.6770 H   0  0  0  0  0  0  0  0  0  0  0  0
   30.5859    2.2394   37.1131 H   0  0  0  0  0  0  0  0  0  0  0  0
   30.7835    1.2338   39.2758 H   0  0  0  0  0  0  0  0  0  0  0  0
   33.9560    1.4456   37.8587 H   0  0  0  0  0  0  0  0  0  0  0  0
   36.0248    0.5396   38.7975 H   0  0  0  0  0  0  0  0  0  0  0  0
   36.3806   -1.1978   41.7289 H   0  0  0  0  0  0  0  0  0  0  0  0
   36.2681   -2.5493   40.6100 H   0  0  0  0  0  0  0  0  0  0  0  0
   36.6931   -2.8120   38.3231 N   0  0  0  0  0  0  0  0  0  0  0  0
   36.8684   -3.4942   35.1366 H   0  0  0  0  0  0  0  0  0  0  0  0
   34.4002   -4.9404   39.2719 H   0  0  0  0  0  0  0  0  0  0  0  0
   36.1285   -4.6005   39.4638 H   0  0  0  0  0  0  0  0  0  0  0  0
   35.4009   -7.7781   37.3947 H   0  0  0  0  0  0  0  0  0  0  0  0
   36.2214   -9.8986   41.3607 C   0  0  0  0  0  0  0  0  0  0  0  0
   37.1510   -9.7175   41.9102 H   0  0  0  0  0  0  0  0  0  0  0  0
   36.3115  -10.8613   40.8478 H   0  0  0  0  0  0  0  0  0  0  0  0
   35.4079   -9.9643   42.0902 H   0  0  0  0  0  0  0  0  0  0  0  0
  1  2  1  0  0  0  0
  1  5  1  0  0  0  0
  2  3  2  0  0  0  0
  2 43  1  0  0  0  0
  3  4  1  0  0  0  0
  4  5  2  0  0  0  0
  4 42  1  0  0  0  0
  5  6  1  0  0  0  0
  6  7  1  0  0  0  0
  6 40  1  0  0  0  0
  6 41  1  0  0  0  0
  7  8  1  0  0  0  0
  8  9  1  0  0  0  0
  8 38  2  0  0  0  0
  9 10  1  0  0  0  0
  9 39  1  0  0  0  0
 10 11  2  0  0  0  0
 10 12  1  0  0  0  0
 12 13  2  0  0  0  0
 13 14  1  0  0  0  0
 13 38  1  0  0  0  0
 14 15  1  0  0  0  0
 15 16  1  0  0  0  0
 15 36  1  0  0  0  0
 15 37  1  0  0  0  0
 16 17  1  0  0  0  0
 16 21  2  0  0  0  0
 17 18  2  0  0  0  0
 17 35  1  0  0  0  0
 18 19  1  0  0  0  0
 18 34  1  0  0  0  0
 19 20  2  0  0  0  0
 19 24  1  0  0  0  0
 20 21  1  0  0  0  0
 20 23  1  0  0  0  0
 21 22  1  0  0  0  0
 24 25  1  0  0  0  0
 24 29  1  0  0  0  0
 24 33  1  0  0  0  0
 25 26  1  0  0  0  0
 25 27  1  0  0  0  0
 25 28  1  0  0  0  0
 29 30  1  0  0  0  0
 29 31  1  0  0  0  0
 29 32  1  0  0  0  0
 43 44  1  0  0  0  0
 43 45  1  0  0  0  0
 43 46  1  0  0  0  0
M  END
> <Gold.Goldscore.Fitness>
67.7756

> <Gold.Goldscore.External.HBond>
1.4847

> <Gold.Protein.ActiveResidues>
 GLU87   ILE88   VAL90   ASN91   ALA92   ASP94   ASN95   ARG98   ILE118  ASN120 
 LYS123  GLY124  ILE125  ILE141  PHE142  THR147  SER148  SER149  ASN150  TYR151 
 GLY160  GLY161  ARG162  ASN163  GLY164  TYR165  GLY166  ALA167  LYS168  LEU169 
 THR181  THR215  ILE217  ILE317  GLN376  LYS378  ILE33   TYR34   MG903  

> <Gold.Goldscore.Internal.HBond>
0.0

> <Gold.Goldscore.Internal.Torsion.Weighted>
-4.6232

> <Gold.Protein.RotatedTorsions>
[ 8833 2752 2751 2750 ] final  -92.65 input   60.00 | X-H torsion
[ 6906  969  968  965 ] final -179.89 input   59.99 | X-H torsion
[ 6910  975  974  971 ] final  -12.12 input   60.00 | X-H torsion
[ 6897  962  961  958 ] final   71.11 input   60.00 | X-H torsion
[ 9084 2997 2996 2994 ] final  -38.60 input   60.00 | X-H torsion
[ 7406 1497 1496 1493 ] final  170.76 input   60.00 | X-H torsion
[ 7140 1220 1219 1216 ] final  115.27 input   60.00 | X-H torsion
[ 6926  995  994  992 ] final   25.13 input   60.0

> <Gold.Goldscore.Constraint.Score>
0.0

> <Gold.Id.Protein>
1ZXM|1ZXM_protein|mol2

> <Gold.Protein.RotatedAtoms>
   40.6750    3.3830   41.8637 H   0  0  0  0  0  0  0  0  0  0  0  0  # atno 6897 bound_to 962 
   42.5663   -2.5035   38.2571 H   0  0  0  0  0  0  0  0  0  0  0  0  # atno 6906 bound_to 969 
   38.8111   -4.3840   40.0676 H   0  0  0  0  0  0  0  0  0  0  0  0  # atno 6910 bound_to 975 
   45.8911    1.1244   38.6740 H   0  0  0  0  0  0  0  0  0  0  0  0  # atno 6926 bound_to 995 
   28.0475    0.1168   43.0607 H   0  0  0  0  0  0  0  0  0  0  0  0  # atno 7140 bound_to 1220
   28.2838   -0.9017   41.0

> <Gold.Version>
5.3.0

> <Gold.Goldscore.Internal.Correction>
-0.0166

> <Gold.Goldscore.Internal.Vdw>
-1.3472

> <Gold.Goldscore.Internal.Vdw.Weighted>
-1.3472

> <Gold.Goldscore.External.HBond.Weighted>
1.4847

> <Gold.Goldscore.External.Vdw.Weighted>
72.2447

> <Gold.Goldscore.Internal.HBond.Weighted>
0.0

> <Gold.Goldscore.Hbonds>
donor molecule, donor type, donor heavy atom, donor atom, acceptor molecule, acceptor atom, score
      L1  H     1    27       P1   757  0.74

> <Gold.Goldscore.External.Vdw>
52.5416

> <Gold.Goldscore.Internal.Torsion>
-4.6232

> <Gold.Goldscore.Internal.Correction.Weighted>
-0.0166

> <Gold.Version>
5.3.0

> <Gold.Id.Protein>
1ZXM|1ZXM_protein|mol2

> <Gold.ASP.Fitness>
27.6292

> <Gold.ASP.ASP>
31.6000

> <Gold.ASP.Map>
-158.0000

> <Gold.ASP.DEClash>
2.9761

> <Gold.ASP.DEInternal>
0.9948

> <Gold.ASP.Internal.Correction>
0.1091

> <Gold.Protein.RotatedTorsions>
[ 8924 2752 2751 2750 ] final  -76.68 input   60.00 | X-H torsion
[ 6908  969  968  965 ] final -163.50 input   59.99 | X-H torsion
[ 6912  975  974  971 ] final -172.89 input   60.00 | X-H torsion
[ 6899  962  961  958 ] final  111.09 input   60.00 | X-H torsion
[ 9165 2997 2996 2994 ] final  -71.08 input   60.00 | X-H torsion
[ 7410 1497 1496 1493 ] final -171.12 input   60.00 | X-H torsion
[ 7137 1220 1219 1216 ] final   45.04 input   60.00 | X-H torsion
[ 6928  995  994  992 ] final  134.04 input   60.00 | X-H torsion

> <Gold.Protein.ActiveResidues>
 GLU87   ILE88   VAL90   ASN91   ALA92   ASP94   ASN95   ARG98   ILE118  ASN120 
 LYS123  GLY124  ILE125  ILE141  PHE142  THR147  SER148  SER149  ASN150  TYR151 
 GLY160  GLY161  ARG162  ASN163  GLY164  TYR165  GLY166  ALA167  LYS168  LEU169 
 THR181  THR215  ILE217  ILE317  GLN376  LYS378  ILE33   TYR34   MG903  

> <Gold.Protein.RotatedAtoms>
   40.3636    3.6204   42.3702 H   0  0  0  0  0  0  0  0  0  0  0  0  # atno 6899 bound_to 962 
   42.6985   -2.6698   38.4187 H   0  0  0  0  0  0  0  0  0  0  0  0  # atno 6908 bound_to 969 
   37.2394   -4.9085   40.8817 H   0  0  0  0  0  0  0  0  0  0  0  0  # atno 6912 bound_to 975 
   45.2474    1.4666   40.0118 H   0  0  0  0  0  0  0  0  0  0  0  0  # atno 6928 bound_to 995 
   26.9927    0.0463   43.2665 H   0  0  0  0  0  0  0  0  0  0  0  0  # atno 7137 bound_to 1220
   28.4094   -0.6637   41.1787 H   0  0  0  0  0  0  0  0  0  0  0  0  # atno 7410 bound_to 1497
   43.8454   -1.1400   30.3429 H   0  0  0  0  0  0  0  0  0  0  0  0  # atno 8924 bound_to 2752
   43.8921    0.1818   29.3439 H   0  0  0  0  0  0  0  0  0  0  0  0  # atno 8925 bound_to 2752
   43.2769    0.3227   30.8765 H   0  0  0  0  0  0  0  0  0  0  0  0  # atno 8926 bound_to 2752
   33.9099   -3.5785   44.6217 H   0  0  0  0  0  0  0  0  0  0  0  0  # atno 9165 bound_to 2997
   41.1680   -2.1339   38.5556 LP  0  0  0  0  0  0  0  0  0  0  0  0  # atno 11896 bound_to 969 
   41.7804   -3.1580   39.6705 LP  0  0  0  0  0  0  0  0  0  0  0  0  # atno 11897 bound_to 969 
   38.5416   -5.5489   40.1453 LP  0  0  0  0  0  0  0  0  0  0  0  0  # atno 11898 bound_to 975 
   38.4057   -3.9296   40.3076 LP  0  0  0  0  0  0  0  0  0  0  0  0  # atno 11899 bound_to 975 
   41.7154    3.8789   41.5020 LP  0  0  0  0  0  0  0  0  0  0  0  0  # atno 11904 bound_to 962 
   41.3678    4.8333   42.7807 LP  0  0  0  0  0  0  0  0  0  0  0  0  # atno 11905 bound_to 962 
   34.1604   -4.9507   45.4599 LP  0  0  0  0  0  0  0  0  0  0  0  0  # atno 11912 bound_to 2997
   34.7185   -4.8106   43.9316 LP  0  0  0  0  0  0  0  0  0  0  0  0  # atno 11913 bound_to 2997
   26.8817   -1.2044   41.3253 LP  0  0  0  0  0  0  0  0  0  0  0  0  # atno 11922 bound_to 1497
   27.3468    0.1567   42.0984 LP  0  0  0  0  0  0  0  0  0  0  0  0  # atno 11923 bound_to 1497
   27.4543   -0.1943   44.8082 LP  0  0  0  0  0  0  0  0  0  0  0  0  # atno 11930 bound_to 1220
   28.5756    0.0367   43.6437 LP  0  0  0  0  0  0  0  0  0  0  0  0  # atno 11931 bound_to 1220

$$$$
****|SGG-4|sdf|1|dock22
  -GOLD-   9 72311453D 1   1.00000     0.00000

 46 48  0  0  0  0  0  0  0  0  1 V2000
   36.3160   -0.1631   38.9551 S   0  0  0  0  0  0  0  0  0  0  0  0
   36.8064    1.4717   39.1505 C   0  0  0  0  0  0  0  0  0  0  0  0
   37.9712    1.7805   38.6234 N   0  0  0  0  0  0  0  0  0  0  0  0
   38.5198    0.6637   38.0255 C   0  0  0  0  0  0  0  0  0  0  0  0
   37.7668   -0.4928   38.0984 C   0  0  0  0  0  0  0  0  0  0  0  0
   38.0711   -1.8671   37.5956 C   0  0  0  0  0  0  0  0  0  0  0  0
   36.7471   -2.4738   36.5006 S   0  0  0  0  0  0  0  0  0  0  0  0
   35.9788   -3.6102   37.6000 C   0  0  0  0  0  0  0  0  0  0  0  0
   36.4703   -4.9042   37.6806 N   0  0  0  0  0  0  0  0  0  0  0  0
   35.8702   -5.8222   38.5336 C   0  0  0  0  0  0  0  0  0  0  0  0
   36.3656   -7.1246   38.6298 O   0  0  0  0  0  0  0  0  0  0  0  0
   34.8081   -5.4520   39.2557 N   0  0  0  0  0  0  0  0  0  0  0  0
   34.3881   -4.1888   39.1163 C   0  0  0  0  0  0  0  0  0  0  0  0
   32.9394   -3.7326   40.0307 S   0  0  0  0  0  0  0  0  0  0  0  0
   33.2871   -1.9562   40.0968 C   0  0  0  0  0  0  0  0  0  0  0  0
   32.5037   -1.1803   39.0687 C   0  0  0  0  0  0  0  0  0  0  0  0
   31.4365   -1.7711   38.3819 C   0  0  0  0  0  0  0  0  0  0  0  0
   30.6946   -1.0366   37.4514 C   0  0  0  0  0  0  0  0  0  0  0  0
   31.0128    0.3002   37.1734 C   0  0  0  0  0  0  0  0  0  0  0  0
   32.0898    0.8844   37.8552 C   0  0  0  0  0  0  0  0  0  0  0  0
   32.8283    0.1533   38.7889 C   0  0  0  0  0  0  0  0  0  0  0  0
   33.6596    0.6343   39.3007 H   0  0  0  0  0  0  0  0  0  0  0  0
   32.3620    1.9211   37.6679 H   0  0  0  0  0  0  0  0  0  0  0  0
   30.2084    1.1370   36.1938 C   0  0  0  0  0  0  0  0  0  0  0  0
   30.9108    2.4701   35.9272 C   0  0  0  0  0  0  0  0  0  0  0  0
   30.9824    3.0788   36.8353 H   0  0  0  0  0  0  0  0  0  0  0  0
   31.9282    2.3092   35.5533 H   0  0  0  0  0  0  0  0  0  0  0  0
   30.3666    3.0504   35.1744 H   0  0  0  0  0  0  0  0  0  0  0  0
   28.7625    1.3662   36.6422 C   0  0  0  0  0  0  0  0  0  0  0  0
   28.6978    2.0507   37.4947 H   0  0  0  0  0  0  0  0  0  0  0  0
   28.2862    0.4224   36.9294 H   0  0  0  0  0  0  0  0  0  0  0  0
   28.1755    1.8038   35.8272 H   0  0  0  0  0  0  0  0  0  0  0  0
   30.1551    0.5935   35.2408 H   0  0  0  0  0  0  0  0  0  0  0  0
   29.8596   -1.5227   36.9528 H   0  0  0  0  0  0  0  0  0  0  0  0
   31.1673   -2.8080   38.5715 H   0  0  0  0  0  0  0  0  0  0  0  0
   34.3564   -1.7741   39.9329 H   0  0  0  0  0  0  0  0  0  0  0  0
   33.0571   -1.5835   41.1021 H   0  0  0  0  0  0  0  0  0  0  0  0
   34.9206   -3.2492   38.3258 N   0  0  0  0  0  0  0  0  0  0  0  0
   37.2649   -5.1703   37.1162 H   0  0  0  0  0  0  0  0  0  0  0  0
   39.0131   -1.8387   37.0351 H   0  0  0  0  0  0  0  0  0  0  0  0
   38.1957   -2.5688   38.4274 H   0  0  0  0  0  0  0  0  0  0  0  0
   39.4865    0.7514   37.5435 H   0  0  0  0  0  0  0  0  0  0  0  0
   35.9403    2.4281   39.8913 C   0  0  0  0  0  0  0  0  0  0  0  0
   34.9397    2.4584   39.4478 H   0  0  0  0  0  0  0  0  0  0  0  0
   36.3636    3.4365   39.8451 H   0  0  0  0  0  0  0  0  0  0  0  0
   35.8329    2.1403   40.9420 H   0  0  0  0  0  0  0  0  0  0  0  0
  1  2  1  0  0  0  0
  1  5  1  0  0  0  0
  2  3  2  0  0  0  0
  2 43  1  0  0  0  0
  3  4  1  0  0  0  0
  4  5  2  0  0  0  0
  4 42  1  0  0  0  0
  5  6  1  0  0  0  0
  6  7  1  0  0  0  0
  6 40  1  0  0  0  0
  6 41  1  0  0  0  0
  7  8  1  0  0  0  0
  8  9  1  0  0  0  0
  8 38  2  0  0  0  0
  9 10  1  0  0  0  0
  9 39  1  0  0  0  0
 10 11  2  0  0  0  0
 10 12  1  0  0  0  0
 12 13  2  0  0  0  0
 13 14  1  0  0  0  0
 13 38  1  0  0  0  0
 14 15  1  0  0  0  0
 15 16  1  0  0  0  0
 15 36  1  0  0  0  0
 15 37  1  0  0  0  0
 16 17  1  0  0  0  0
 16 21  2  0  0  0  0
 17 18  2  0  0  0  0
 17 35  1  0  0  0  0
 18 19  1  0  0  0  0
 18 34  1  0  0  0  0
 19 20  2  0  0  0  0
 19 24  1  0  0  0  0
 20 21  1  0  0  0  0
 20 23  1  0  0  0  0
 21 22  1  0  0  0  0
 24 25  1  0  0  0  0
 24 29  1  0  0  0  0
 24 33  1  0  0  0  0
 25 26  1  0  0  0  0
 25 27  1  0  0  0  0
 25 28  1  0  0  0  0
 29 30  1  0  0  0  0
 29 31  1  0  0  0  0
 29 32  1  0  0  0  0
 43 44  1  0  0  0  0
 43 45  1  0  0  0  0
 43 46  1  0  0  0  0
M  END
> <Gold.Goldscore.Fitness>
67.7756

> <Gold.Goldscore.External.HBond>
1.4847

> <Gold.Protein.ActiveResidues>
 GLU87   ILE88   VAL90   ASN91   ALA92   ASP94   ASN95   ARG98   ILE118  ASN120 
 LYS123  GLY124  ILE125  ILE141  PHE142  THR147  SER148  SER149  ASN150  TYR151 
 GLY160  GLY161  ARG162  ASN163  GLY164  TYR165  GLY166  ALA167  LYS168  LEU169 
 THR181  THR215  ILE217  ILE317  GLN376  LYS378  ILE33   TYR34   MG903  

> <Gold.Goldscore.Internal.HBond>
0.0

> <Gold.Goldscore.Internal.Torsion.Weighted>
-4.6232

> <Gold.Protein.RotatedTorsions>
[ 8833 2752 2751 2750 ] final  -92.65 input   60.00 | X-H torsion
[ 6906  969  968  965 ] final -179.89 input   59.99 | X-H torsion
[ 6910  975  974  971 ] final  -12.12 input   60.00 | X-H torsion
[ 6897  962  961  958 ] final   71.11 input   60.00 | X-H torsion
[ 9084 2997 2996 2994 ] final  -38.60 input   60.00 | X-H torsion
[ 7406 1497 1496 1493 ] final  170.76 input   60.00 | X-H torsion
[ 7140 1220 1219 1216 ] final  115.27 input   60.00 | X-H torsion
[ 6926  995  994  992 ] final   25.13 input   60.0

> <Gold.Goldscore.Constraint.Score>
0.0

> <Gold.Id.Protein>
1ZXM|1ZXM_protein|mol2

> <Gold.Protein.RotatedAtoms>
   40.6750    3.3830   41.8637 H   0  0  0  0  0  0  0  0  0  0  0  0  # atno 6897 bound_to 962 
   42.5663   -2.5035   38.2571 H   0  0  0  0  0  0  0  0  0  0  0  0  # atno 6906 bound_to 969 
   38.8111   -4.3840   40.0676 H   0  0  0  0  0  0  0  0  0  0  0  0  # atno 6910 bound_to 975 
   45.8911    1.1244   38.6740 H   0  0  0  0  0  0  0  0  0  0  0  0  # atno 6926 bound_to 995 
   28.0475    0.1168   43.0607 H   0  0  0  0  0  0  0  0  0  0  0  0  # atno 7140 bound_to 1220
   28.2838   -0.9017   41.0

> <Gold.Version>
5.3.0

> <Gold.Goldscore.Internal.Correction>
-0.0166

> <Gold.Goldscore.Internal.Vdw>
-1.3472

> <Gold.Goldscore.Internal.Vdw.Weighted>
-1.3472

> <Gold.Goldscore.External.HBond.Weighted>
1.4847

> <Gold.Goldscore.External.Vdw.Weighted>
72.2447

> <Gold.Goldscore.Internal.HBond.Weighted>
0.0

> <Gold.Goldscore.Hbonds>
donor molecule, donor type, donor heavy atom, donor atom, acceptor molecule, acceptor atom, score
      L1  H     1    27       P1   757  0.74

> <Gold.Goldscore.External.Vdw>
52.5416

> <Gold.Goldscore.Internal.Torsion>
-4.6232

> <Gold.Goldscore.Internal.Correction.Weighted>
-0.0166

> <Gold.Version>
5.3.0

> <Gold.Id.Protein>
1ZXM|1ZXM_protein|mol2

> <Gold.ASP.Fitness>
27.6160

> <Gold.ASP.ASP>
30.7200

> <Gold.ASP.Map>
-153.6000

> <Gold.ASP.DEClash>
1.6301

> <Gold.ASP.DEInternal>
1.4739

> <Gold.ASP.Internal.Correction>
0.1091

> <Gold.Protein.RotatedTorsions>
[ 8924 2752 2751 2750 ] final  114.90 input   60.00 | X-H torsion
[ 6908  969  968  965 ] final  139.56 input   59.99 | X-H torsion
[ 6912  975  974  971 ] final  -17.36 input   60.00 | X-H torsion
[ 6899  962  961  958 ] final   65.68 input   60.00 | X-H torsion
[ 9165 2997 2996 2994 ] final  -95.75 input   60.00 | X-H torsion
[ 7410 1497 1496 1493 ] final  -61.82 input   60.00 | X-H torsion
[ 7137 1220 1219 1216 ] final  -93.22 input   60.00 | X-H torsion
[ 6928  995  994  992 ] final  -86.18 input   60.00 | X-H torsion

> <Gold.Protein.ActiveResidues>
 GLU87   ILE88   VAL90   ASN91   ALA92   ASP94   ASN95   ARG98   ILE118  ASN120 
 LYS123  GLY124  ILE125  ILE141  PHE142  THR147  SER148  SER149  ASN150  TYR151 
 GLY160  GLY161  ARG162  ASN163  GLY164  TYR165  GLY166  ALA167  LYS168  LEU169 
 THR181  THR215  ILE217  ILE317  GLN376  LYS378  ILE33   TYR34   MG903  

> <Gold.Protein.RotatedAtoms>
   40.7392    3.3763   41.8030 H   0  0  0  0  0  0  0  0  0  0  0  0  # atno 6899 bound_to 962 
   42.0343   -2.1699   38.0933 H   0  0  0  0  0  0  0  0  0  0  0  0  # atno 6908 bound_to 969 
   38.7766   -4.3092   40.0903 H   0  0  0  0  0  0  0  0  0  0  0  0  # atno 6912 bound_to 975 
   46.9817    1.4384   39.7238 H   0  0  0  0  0  0  0  0  0  0  0  0  # atno 6928 bound_to 995 
   27.7518   -0.1846   44.8256 H   0  0  0  0  0  0  0  0  0  0  0  0  # atno 7137 bound_to 1220
   27.5144    0.1976   42.0672 H   0  0  0  0  0  0  0  0  0  0  0  0  # atno 7410 bound_to 1497
   43.4298    0.7138   30.2136 H   0  0  0  0  0  0  0  0  0  0  0  0  # atno 8924 bound_to 2752
   43.5211   -0.7671   30.9525 H   0  0  0  0  0  0  0  0  0  0  0  0  # atno 8925 bound_to 2752
   44.0634   -0.5821   29.3972 H   0  0  0  0  0  0  0  0  0  0  0  0  # atno 8926 bound_to 2752
   33.8086   -3.6910   44.9920 H   0  0  0  0  0  0  0  0  0  0  0  0  # atno 9165 bound_to 2997
   41.0468   -2.6059   39.3111 LP  0  0  0  0  0  0  0  0  0  0  0  0  # atno 11896 bound_to 969 
   42.5705   -3.1894   39.2427 LP  0  0  0  0  0  0  0  0  0  0  0  0  # atno 11897 bound_to 969 
   37.3410   -4.3447   40.8557 LP  0  0  0  0  0  0  0  0  0  0  0  0  # atno 11898 bound_to 975 
   38.0582   -5.7373   40.3941 LP  0  0  0  0  0  0  0  0  0  0  0  0  # atno 11899 bound_to 975 
   41.9616    4.4474   41.8841 LP  0  0  0  0  0  0  0  0  0  0  0  0  # atno 11904 bound_to 962 
   40.7433    4.5107   42.9697 LP  0  0  0  0  0  0  0  0  0  0  0  0  # atno 11905 bound_to 962 
   34.3656   -5.2027   45.2219 LP  0  0  0  0  0  0  0  0  0  0  0  0  # atno 11912 bound_to 2997
   34.6153   -4.4453   43.7968 LP  0  0  0  0  0  0  0  0  0  0  0  0  # atno 11913 bound_to 2997
   28.3513   -0.8098   41.1014 LP  0  0  0  0  0  0  0  0  0  0  0  0  # atno 11922 bound_to 1497
   26.7787   -1.1053   41.4275 LP  0  0  0  0  0  0  0  0  0  0  0  0  # atno 11923 bound_to 1497
   28.4457    0.0761   43.3770 LP  0  0  0  0  0  0  0  0  0  0  0  0  # atno 11930 bound_to 1220
   26.8196   -0.0013   43.5046 LP  0  0  0  0  0  0  0  0  0  0  0  0  # atno 11931 bound_to 1220

$$$$
****|SGG-4|sdf|1|dock50
  -GOLD-   9 72311473D 1   1.00000     0.00000

 46 48  0  0  0  0  0  0  0  0  1 V2000
   36.5649    0.0776   39.2605 S   0  0  0  0  0  0  0  0  0  0  0  0
   36.8033    1.7007   38.7504 C   0  0  0  0  0  0  0  0  0  0  0  0
   37.6743    1.8670   37.7790 N   0  0  0  0  0  0  0  0  0  0  0  0
   38.1922    0.6427   37.4065 C   0  0  0  0  0  0  0  0  0  0  0  0
   37.7100   -0.4532   38.0966 C   0  0  0  0  0  0  0  0  0  0  0  0
   38.0735   -1.8978   37.9744 C   0  0  0  0  0  0  0  0  0  0  0  0
   36.9689   -2.7564   36.8070 S   0  0  0  0  0  0  0  0  0  0  0  0
   36.0933   -3.7672   37.9481 C   0  0  0  0  0  0  0  0  0  0  0  0
   36.2739   -5.1413   37.9050 N   0  0  0  0  0  0  0  0  0  0  0  0
   35.5823   -5.9599   38.7893 C   0  0  0  0  0  0  0  0  0  0  0  0
   35.7666   -7.3441   38.7607 O   0  0  0  0  0  0  0  0  0  0  0  0
   34.7310   -5.4130   39.6627 N   0  0  0  0  0  0  0  0  0  0  0  0
   34.6051   -4.0807   39.6367 C   0  0  0  0  0  0  0  0  0  0  0  0
   33.4240   -3.3769   40.7560 S   0  0  0  0  0  0  0  0  0  0  0  0
   32.0150   -3.4106   39.6183 C   0  0  0  0  0  0  0  0  0  0  0  0
   31.6746   -2.0414   39.0871 C   0  0  0  0  0  0  0  0  0  0  0  0
   32.3675   -0.9072   39.5263 C   0  0  0  0  0  0  0  0  0  0  0  0
   32.0673    0.3562   39.0071 C   0  0  0  0  0  0  0  0  0  0  0  0
   31.0561    0.5174   38.0494 C   0  0  0  0  0  0  0  0  0  0  0  0
   30.3567   -0.6199   37.6209 C   0  0  0  0  0  0  0  0  0  0  0  0
   30.6594   -1.8832   38.1349 C   0  0  0  0  0  0  0  0  0  0  0  0
   30.0978   -2.7465   37.7834 H   0  0  0  0  0  0  0  0  0  0  0  0
   29.5689   -0.5326   36.8755 H   0  0  0  0  0  0  0  0  0  0  0  0
   30.7262    1.8690   37.4402 C   0  0  0  0  0  0  0  0  0  0  0  0
   29.6046    1.7308   36.4085 C   0  0  0  0  0  0  0  0  0  0  0  0
   29.9059    1.1002   35.5647 H   0  0  0  0  0  0  0  0  0  0  0  0
   28.7118    1.2812   36.8578 H   0  0  0  0  0  0  0  0  0  0  0  0
   29.3206    2.7113   36.0118 H   0  0  0  0  0  0  0  0  0  0  0  0
   31.9432    2.5674   36.8276 C   0  0  0  0  0  0  0  0  0  0  0  0
   32.2799    2.0791   35.9069 H   0  0  0  0  0  0  0  0  0  0  0  0
   32.7834    2.5803   37.5304 H   0  0  0  0  0  0  0  0  0  0  0  0
   31.7003    3.6057   36.5761 H   0  0  0  0  0  0  0  0  0  0  0  0
   30.3614    2.5268   38.2408 H   0  0  0  0  0  0  0  0  0  0  0  0
   32.6407    1.2111   39.3567 H   0  0  0  0  0  0  0  0  0  0  0  0
   33.1545   -0.9981   40.2719 H   0  0  0  0  0  0  0  0  0  0  0  0
   31.1314   -3.8200   40.1231 H   0  0  0  0  0  0  0  0  0  0  0  0
   32.2422   -4.0887   38.7870 H   0  0  0  0  0  0  0  0  0  0  0  0
   35.2441   -3.2304   38.8243 N   0  0  0  0  0  0  0  0  0  0  0  0
   36.9105   -5.5380   37.2281 H   0  0  0  0  0  0  0  0  0  0  0  0
   39.1053   -1.9740   37.6114 H   0  0  0  0  0  0  0  0  0  0  0  0
   38.0217   -2.3975   38.9478 H   0  0  0  0  0  0  0  0  0  0  0  0
   38.9302    0.6075   36.6136 H   0  0  0  0  0  0  0  0  0  0  0  0
   36.0609    2.8081   39.4107 C   0  0  0  0  0  0  0  0  0  0  0  0
   34.9824    2.6261   39.3620 H   0  0  0  0  0  0  0  0  0  0  0  0
   36.2689    3.7571   38.9065 H   0  0  0  0  0  0  0  0  0  0  0  0
   36.3378    2.9031   40.4655 H   0  0  0  0  0  0  0  0  0  0  0  0
  1  2  1  0  0  0  0
  1  5  1  0  0  0  0
  2  3  2  0  0  0  0
  2 43  1  0  0  0  0
  3  4  1  0  0  0  0
  4  5  2  0  0  0  0
  4 42  1  0  0  0  0
  5  6  1  0  0  0  0
  6  7  1  0  0  0  0
  6 40  1  0  0  0  0
  6 41  1  0  0  0  0
  7  8  1  0  0  0  0
  8  9  1  0  0  0  0
  8 38  2  0  0  0  0
  9 10  1  0  0  0  0
  9 39  1  0  0  0  0
 10 11  2  0  0  0  0
 10 12  1  0  0  0  0
 12 13  2  0  0  0  0
 13 14  1  0  0  0  0
 13 38  1  0  0  0  0
 14 15  1  0  0  0  0
 15 16  1  0  0  0  0
 15 36  1  0  0  0  0
 15 37  1  0  0  0  0
 16 17  1  0  0  0  0
 16 21  2  0  0  0  0
 17 18  2  0  0  0  0
 17 35  1  0  0  0  0
 18 19  1  0  0  0  0
 18 34  1  0  0  0  0
 19 20  2  0  0  0  0
 19 24  1  0  0  0  0
 20 21  1  0  0  0  0
 20 23  1  0  0  0  0
 21 22  1  0  0  0  0
 24 25  1  0  0  0  0
 24 29  1  0  0  0  0
 24 33  1  0  0  0  0
 25 26  1  0  0  0  0
 25 27  1  0  0  0  0
 25 28  1  0  0  0  0
 29 30  1  0  0  0  0
 29 31  1  0  0  0  0
 29 32  1  0  0  0  0
 43 44  1  0  0  0  0
 43 45  1  0  0  0  0
 43 46  1  0  0  0  0
M  END
> <Gold.Goldscore.Fitness>
67.7756

> <Gold.Goldscore.External.HBond>
1.4847

> <Gold.Protein.ActiveResidues>
 GLU87   ILE88   VAL90   ASN91   ALA92   ASP94   ASN95   ARG98   ILE118  ASN120 
 LYS123  GLY124  ILE125  ILE141  PHE142  THR147  SER148  SER149  ASN150  TYR151 
 GLY160  GLY161  ARG162  ASN163  GLY164  TYR165  GLY166  ALA167  LYS168  LEU169 
 THR181  THR215  ILE217  ILE317  GLN376  LYS378  ILE33   TYR34   MG903  

> <Gold.Goldscore.Internal.HBond>
0.0

> <Gold.Goldscore.Internal.Torsion.Weighted>
-4.6232

> <Gold.Protein.RotatedTorsions>
[ 8833 2752 2751 2750 ] final  -92.65 input   60.00 | X-H torsion
[ 6906  969  968  965 ] final -179.89 input   59.99 | X-H torsion
[ 6910  975  974  971 ] final  -12.12 input   60.00 | X-H torsion
[ 6897  962  961  958 ] final   71.11 input   60.00 | X-H torsion
[ 9084 2997 2996 2994 ] final  -38.60 input   60.00 | X-H torsion
[ 7406 1497 1496 1493 ] final  170.76 input   60.00 | X-H torsion
[ 7140 1220 1219 1216 ] final  115.27 input   60.00 | X-H torsion
[ 6926  995  994  992 ] final   25.13 input   60.0

> <Gold.Goldscore.Constraint.Score>
0.0

> <Gold.Id.Protein>
1ZXM|1ZXM_protein|mol2

> <Gold.Protein.RotatedAtoms>
   40.6750    3.3830   41.8637 H   0  0  0  0  0  0  0  0  0  0  0  0  # atno 6897 bound_to 962 
   42.5663   -2.5035   38.2571 H   0  0  0  0  0  0  0  0  0  0  0  0  # atno 6906 bound_to 969 
   38.8111   -4.3840   40.0676 H   0  0  0  0  0  0  0  0  0  0  0  0  # atno 6910 bound_to 975 
   45.8911    1.1244   38.6740 H   0  0  0  0  0  0  0  0  0  0  0  0  # atno 6926 bound_to 995 
   28.0475    0.1168   43.0607 H   0  0  0  0  0  0  0  0  0  0  0  0  # atno 7140 bound_to 1220
   28.2838   -0.9017   41.0

> <Gold.Version>
5.3.0

> <Gold.Goldscore.Internal.Correction>
-0.0166

> <Gold.Goldscore.Internal.Vdw>
-1.3472

> <Gold.Goldscore.Internal.Vdw.Weighted>
-1.3472

> <Gold.Goldscore.External.HBond.Weighted>
1.4847

> <Gold.Goldscore.External.Vdw.Weighted>
72.2447

> <Gold.Goldscore.Internal.HBond.Weighted>
0.0

> <Gold.Goldscore.Hbonds>
donor molecule, donor type, donor heavy atom, donor atom, acceptor molecule, acceptor atom, score
      L1  H     1    27       P1   757  0.74

> <Gold.Goldscore.External.Vdw>
52.5416

> <Gold.Goldscore.Internal.Torsion>
-4.6232

> <Gold.Goldscore.Internal.Correction.Weighted>
-0.0166

> <Gold.Version>
5.3.0

> <Gold.Id.Protein>
1ZXM|1ZXM_protein|mol2

> <Gold.ASP.Fitness>
27.5893

> <Gold.ASP.ASP>
31.2060

> <Gold.ASP.Map>
-156.0300

> <Gold.ASP.DEClash>
2.2038

> <Gold.ASP.DEInternal>
1.4129

> <Gold.ASP.Internal.Correction>
0.1091

> <Gold.Protein.RotatedTorsions>
[ 8924 2752 2751 2750 ] final   11.01 input   60.00 | X-H torsion
[ 6908  969  968  965 ] final  -39.63 input   59.99 | X-H torsion
[ 6912  975  974  971 ] final   12.10 input   60.00 | X-H torsion
[ 6899  962  961  958 ] final  -28.31 input   60.00 | X-H torsion
[ 9165 2997 2996 2994 ] final   -9.07 input   60.00 | X-H torsion
[ 7410 1497 1496 1493 ] final  -45.02 input   60.00 | X-H torsion
[ 7137 1220 1219 1216 ] final  -89.03 input   60.00 | X-H torsion
[ 6928  995  994  992 ] final   71.14 input   60.00 | X-H torsion

> <Gold.Protein.ActiveResidues>
 GLU87   ILE88   VAL90   ASN91   ALA92   ASP94   ASN95   ARG98   ILE118  ASN120 
 LYS123  GLY124  ILE125  ILE141  PHE142  THR147  SER148  SER149  ASN150  TYR151 
 GLY160  GLY161  ARG162  ASN163  GLY164  TYR165  GLY166  ALA167  LYS168  LEU169 
 THR181  THR215  ILE217  ILE317  GLN376  LYS378  ILE33   TYR34   MG903  

> <Gold.Protein.RotatedAtoms>
   41.8730    4.1235   41.6270 H   0  0  0  0  0  0  0  0  0  0  0  0  # atno 6899 bound_to 962 
   41.7228   -3.1308   39.6699 H   0  0  0  0  0  0  0  0  0  0  0  0  # atno 6908 bound_to 969 
   38.8863   -4.7648   40.0063 H   0  0  0  0  0  0  0  0  0  0  0  0  # atno 6912 bound_to 975 
   45.2814    1.2134   39.0689 H   0  0  0  0  0  0  0  0  0  0  0  0  # atno 6928 bound_to 995 
   27.6834   -0.1874   44.8285 H   0  0  0  0  0  0  0  0  0  0  0  0  # atno 7137 bound_to 1220
   27.2553    0.1159   42.0983 H   0  0  0  0  0  0  0  0  0  0  0  0  # atno 7410 bound_to 1497
   44.0334   -0.3305   29.3099 H   0  0  0  0  0  0  0  0  0  0  0  0  # atno 8924 bound_to 2752
   43.3524    0.6478   30.4616 H   0  0  0  0  0  0  0  0  0  0  0  0  # atno 8925 bound_to 2752
   43.6286   -0.9528   30.7918 H   0  0  0  0  0  0  0  0  0  0  0  0  # atno 8926 bound_to 2752
   34.3801   -3.9670   43.8744 H   0  0  0  0  0  0  0  0  0  0  0  0  # atno 9165 bound_to 2997
   42.7254   -2.7115   38.4586 LP  0  0  0  0  0  0  0  0  0  0  0  0  # atno 11896 bound_to 969 
   41.2056   -2.1162   38.5075 LP  0  0  0  0  0  0  0  0  0  0  0  0  # atno 11897 bound_to 969 
   37.6391   -3.9966   40.7151 LP  0  0  0  0  0  0  0  0  0  0  0  0  # atno 11898 bound_to 975 
   37.6496   -5.6267   40.6194 LP  0  0  0  0  0  0  0  0  0  0  0  0  # atno 11899 bound_to 975 
   41.0947    4.7422   42.9151 LP  0  0  0  0  0  0  0  0  0  0  0  0  # atno 11904 bound_to 962 
   40.4684    3.4633   42.1160 LP  0  0  0  0  0  0  0  0  0  0  0  0  # atno 11905 bound_to 962 
   33.7995   -4.0514   45.3923 LP  0  0  0  0  0  0  0  0  0  0  0  0  # atno 11912 bound_to 2997
   34.6060   -5.3187   44.7518 LP  0  0  0  0  0  0  0  0  0  0  0  0  # atno 11913 bound_to 2997
   28.4398   -0.5816   41.2275 LP  0  0  0  0  0  0  0  0  0  0  0  0  # atno 11922 bound_to 1497
   26.9511   -1.2513   41.2699 LP  0  0  0  0  0  0  0  0  0  0  0  0  # atno 11923 bound_to 1497
   28.4831    0.0680   43.4345 LP  0  0  0  0  0  0  0  0  0  0  0  0  # atno 11930 bound_to 1220
   26.8511    0.0098   43.4442 LP  0  0  0  0  0  0  0  0  0  0  0  0  # atno 11931 bound_to 1220

$$$$
****|SGG-4|sdf|1|dock15
  -GOLD-   9 72311443D 1   1.00000     0.00000

 46 48  0  0  0  0  0  0  0  0  1 V2000
   36.0731   -7.2790   40.6799 S   0  0  0  0  0  0  0  0  0  0  0  0
   35.9538   -8.9921   40.6306 C   0  0  0  0  0  0  0  0  0  0  0  0
   35.7805   -9.5137   39.4357 N   0  0  0  0  0  0  0  0  0  0  0  0
   35.7376   -8.5067   38.4924 C   0  0  0  0  0  0  0  0  0  0  0  0
   35.8811   -7.2196   38.9748 C   0  0  0  0  0  0  0  0  0  0  0  0
   35.8499   -5.9148   38.2464 C   0  0  0  0  0  0  0  0  0  0  0  0
   34.1393   -5.3285   38.0224 S   0  0  0  0  0  0  0  0  0  0  0  0
   34.0126   -4.2981   39.4410 C   0  0  0  0  0  0  0  0  0  0  0  0
   32.7900   -4.1899   40.0861 N   0  0  0  0  0  0  0  0  0  0  0  0
   32.6644   -3.3712   41.2016 C   0  0  0  0  0  0  0  0  0  0  0  0
   31.4397   -3.2649   41.8645 O   0  0  0  0  0  0  0  0  0  0  0  0
   33.7235   -2.6779   41.6309 N   0  0  0  0  0  0  0  0  0  0  0  0
   34.8660   -2.8289   40.9502 C   0  0  0  0  0  0  0  0  0  0  0  0
   36.2433   -1.8529   41.4920 S   0  0  0  0  0  0  0  0  0  0  0  0
   36.4687   -0.9367   39.9460 C   0  0  0  0  0  0  0  0  0  0  0  0
   35.1585   -0.6261   39.2678 C   0  0  0  0  0  0  0  0  0  0  0  0
   34.8742   -1.1241   37.9908 C   0  0  0  0  0  0  0  0  0  0  0  0
   33.6448   -0.8574   37.3799 C   0  0  0  0  0  0  0  0  0  0  0  0
   32.6778   -0.0728   38.0241 C   0  0  0  0  0  0  0  0  0  0  0  0
   32.9715    0.4336   39.2982 C   0  0  0  0  0  0  0  0  0  0  0  0
   34.1972    0.1634   39.9118 C   0  0  0  0  0  0  0  0  0  0  0  0
   34.3960    0.5720   40.9006 H   0  0  0  0  0  0  0  0  0  0  0  0
   32.2427    1.0424   39.8294 H   0  0  0  0  0  0  0  0  0  0  0  0
   31.3201    0.2092   37.4044 C   0  0  0  0  0  0  0  0  0  0  0  0
   31.1576    1.7061   37.1318 C   0  0  0  0  0  0  0  0  0  0  0  0
   31.1789    2.2911   38.0579 H   0  0  0  0  0  0  0  0  0  0  0  0
   31.9616    2.0765   36.4857 H   0  0  0  0  0  0  0  0  0  0  0  0
   30.2059    1.9067   36.6283 H   0  0  0  0  0  0  0  0  0  0  0  0
   30.1532   -0.3189   38.2433 C   0  0  0  0  0  0  0  0  0  0  0  0
   30.0092    0.2602   39.1617 H   0  0  0  0  0  0  0  0  0  0  0  0
   30.3141   -1.3652   38.5249 H   0  0  0  0  0  0  0  0  0  0  0  0
   29.2190   -0.2646   37.6736 H   0  0  0  0  0  0  0  0  0  0  0  0
   31.2685   -0.3115   36.4387 H   0  0  0  0  0  0  0  0  0  0  0  0
   33.4514   -1.2784   36.3964 H   0  0  0  0  0  0  0  0  0  0  0  0
   35.6053   -1.7322   37.4625 H   0  0  0  0  0  0  0  0  0  0  0  0
   37.0937   -1.5129   39.2528 H   0  0  0  0  0  0  0  0  0  0  0  0
   37.0107   -0.0070   40.1565 H   0  0  0  0  0  0  0  0  0  0  0  0
   35.0641   -3.6048   39.8778 N   0  0  0  0  0  0  0  0  0  0  0  0
   31.9967   -4.7101   39.7385 H   0  0  0  0  0  0  0  0  0  0  0  0
   36.4090   -5.1716   38.8271 H   0  0  0  0  0  0  0  0  0  0  0  0
   36.3280   -6.0037   37.2649 H   0  0  0  0  0  0  0  0  0  0  0  0
   35.5972   -8.7724   37.4511 H   0  0  0  0  0  0  0  0  0  0  0  0
   36.0299   -9.7828   41.8886 C   0  0  0  0  0  0  0  0  0  0  0  0
   36.9558   -9.5547   42.4267 H   0  0  0  0  0  0  0  0  0  0  0  0
   36.0222  -10.8540   41.6638 H   0  0  0  0  0  0  0  0  0  0  0  0
   35.1908   -9.5580   42.5546 H   0  0  0  0  0  0  0  0  0  0  0  0
  1  2  1  0  0  0  0
  1  5  1  0  0  0  0
  2  3  2  0  0  0  0
  2 43  1  0  0  0  0
  3  4  1  0  0  0  0
  4  5  2  0  0  0  0
  4 42  1  0  0  0  0
  5  6  1  0  0  0  0
  6  7  1  0  0  0  0
  6 40  1  0  0  0  0
  6 41  1  0  0  0  0
  7  8  1  0  0  0  0
  8  9  1  0  0  0  0
  8 38  2  0  0  0  0
  9 10  1  0  0  0  0
  9 39  1  0  0  0  0
 10 11  2  0  0  0  0
 10 12  1  0  0  0  0
 12 13  2  0  0  0  0
 13 14  1  0  0  0  0
 13 38  1  0  0  0  0
 14 15  1  0  0  0  0
 15 16  1  0  0  0  0
 15 36  1  0  0  0  0
 15 37  1  0  0  0  0
 16 17  1  0  0  0  0
 16 21  2  0  0  0  0
 17 18  2  0  0  0  0
 17 35  1  0  0  0  0
 18 19  1  0  0  0  0
 18 34  1  0  0  0  0
 19 20  2  0  0  0  0
 19 24  1  0  0  0  0
 20 21  1  0  0  0  0
 20 23  1  0  0  0  0
 21 22  1  0  0  0  0
 24 25  1  0  0  0  0
 24 29  1  0  0  0  0
 24 33  1  0  0  0  0
 25 26  1  0  0  0  0
 25 27  1  0  0  0  0
 25 28  1  0  0  0  0
 29 30  1  0  0  0  0
 29 31  1  0  0  0  0
 29 32  1  0  0  0  0
 43 44  1  0  0  0  0
 43 45  1  0  0  0  0
 43 46  1  0  0  0  0
M  END
> <Gold.Goldscore.Fitness>
67.7756

> <Gold.Goldscore.External.HBond>
1.4847

> <Gold.Protein.ActiveResidues>
 GLU87   ILE88   VAL90   ASN91   ALA92   ASP94   ASN95   ARG98   ILE118  ASN120 
 LYS123  GLY124  ILE125  ILE141  PHE142  THR147  SER148  SER149  ASN150  TYR151 
 GLY160  GLY161  ARG162  ASN163  GLY164  TYR165  GLY166  ALA167  LYS168  LEU169 
 THR181  THR215  ILE217  ILE317  GLN376  LYS378  ILE33   TYR34   MG903  

> <Gold.Goldscore.Internal.HBond>
0.0

> <Gold.Goldscore.Internal.Torsion.Weighted>
-4.6232

> <Gold.Protein.RotatedTorsions>
[ 8833 2752 2751 2750 ] final  -92.65 input   60.00 | X-H torsion
[ 6906  969  968  965 ] final -179.89 input   59.99 | X-H torsion
[ 6910  975  974  971 ] final  -12.12 input   60.00 | X-H torsion
[ 6897  962  961  958 ] final   71.11 input   60.00 | X-H torsion
[ 9084 2997 2996 2994 ] final  -38.60 input   60.00 | X-H torsion
[ 7406 1497 1496 1493 ] final  170.76 input   60.00 | X-H torsion
[ 7140 1220 1219 1216 ] final  115.27 input   60.00 | X-H torsion
[ 6926  995  994  992 ] final   25.13 input   60.0

> <Gold.Goldscore.Constraint.Score>
0.0

> <Gold.Id.Protein>
1ZXM|1ZXM_protein|mol2

> <Gold.Protein.RotatedAtoms>
   40.6750    3.3830   41.8637 H   0  0  0  0  0  0  0  0  0  0  0  0  # atno 6897 bound_to 962 
   42.5663   -2.5035   38.2571 H   0  0  0  0  0  0  0  0  0  0  0  0  # atno 6906 bound_to 969 
   38.8111   -4.3840   40.0676 H   0  0  0  0  0  0  0  0  0  0  0  0  # atno 6910 bound_to 975 
   45.8911    1.1244   38.6740 H   0  0  0  0  0  0  0  0  0  0  0  0  # atno 6926 bound_to 995 
   28.0475    0.1168   43.0607 H   0  0  0  0  0  0  0  0  0  0  0  0  # atno 7140 bound_to 1220
   28.2838   -0.9017   41.0

> <Gold.Version>
5.3.0

> <Gold.Goldscore.Internal.Correction>
-0.0166

> <Gold.Goldscore.Internal.Vdw>
-1.3472

> <Gold.Goldscore.Internal.Vdw.Weighted>
-1.3472

> <Gold.Goldscore.External.HBond.Weighted>
1.4847

> <Gold.Goldscore.External.Vdw.Weighted>
72.2447

> <Gold.Goldscore.Internal.HBond.Weighted>
0.0

> <Gold.Goldscore.Hbonds>
donor molecule, donor type, donor heavy atom, donor atom, acceptor molecule, acceptor atom, score
      L1  H     1    27       P1   757  0.74

> <Gold.Goldscore.External.Vdw>
52.5416

> <Gold.Goldscore.Internal.Torsion>
-4.6232

> <Gold.Goldscore.Internal.Correction.Weighted>
-0.0166

> <Gold.Version>
5.3.0

> <Gold.Id.Protein>
1ZXM|1ZXM_protein|mol2

> <Gold.ASP.Fitness>
27.4784

> <Gold.ASP.ASP>
31.4520

> <Gold.ASP.Map>
-157.2600

> <Gold.ASP.DEClash>
2.1425

> <Gold.ASP.DEInternal>
1.8310

> <Gold.ASP.Internal.Correction>
0.1091

> <Gold.Protein.RotatedTorsions>
[ 8924 2752 2751 2750 ] final   49.71 input   60.00 | X-H torsion
[ 6908  969  968  965 ] final  147.29 input   59.99 | X-H torsion
[ 6912  975  974  971 ] final  -54.62 input   60.00 | X-H torsion
[ 6899  962  961  958 ] final   39.97 input   60.00 | X-H torsion
[ 9165 2997 2996 2994 ] final  131.70 input   60.00 | X-H torsion
[ 7410 1497 1496 1493 ] final  131.98 input   60.00 | X-H torsion
[ 7137 1220 1219 1216 ] final  106.81 input   60.00 | X-H torsion
[ 6928  995  994  992 ] final  -71.91 input   60.00 | X-H torsion

> <Gold.Protein.ActiveResidues>
 GLU87   ILE88   VAL90   ASN91   ALA92   ASP94   ASN95   ARG98   ILE118  ASN120 
 LYS123  GLY124  ILE125  ILE141  PHE142  THR147  SER148  SER149  ASN150  TYR151 
 GLY160  GLY161  ARG162  ASN163  GLY164  TYR165  GLY166  ALA167  LYS168  LEU169 
 THR181  THR215  ILE217  ILE317  GLN376  LYS378  ILE33   TYR34   MG903  

> <Gold.Protein.RotatedAtoms>
   41.0826    3.4331   41.5742 H   0  0  0  0  0  0  0  0  0  0  0  0  # atno 6899 bound_to 962 
   42.1505   -2.2194   38.0952 H   0  0  0  0  0  0  0  0  0  0  0  0  # atno 6908 bound_to 969 
   38.3816   -3.9252   40.3234 H   0  0  0  0  0  0  0  0  0  0  0  0  # atno 6912 bound_to 975 
   46.9964    1.3784   39.4996 H   0  0  0  0  0  0  0  0  0  0  0  0  # atno 6928 bound_to 995 
   27.9174    0.1199   43.0148 H   0  0  0  0  0  0  0  0  0  0  0  0  # atno 7137 bound_to 1220
   27.7950   -1.2747   40.9678 H   0  0  0  0  0  0  0  0  0  0  0  0  # atno 7410 bound_to 1497
   43.8543    0.2734   29.3835 H   0  0  0  0  0  0  0  0  0  0  0  0  # atno 8924 bound_to 2752
   43.2763    0.2344   30.9365 H   0  0  0  0  0  0  0  0  0  0  0  0  # atno 8925 bound_to 2752
   43.8838   -1.1432   30.2434 H   0  0  0  0  0  0  0  0  0  0  0  0  # atno 8926 bound_to 2752
   34.4656   -5.2731   45.0566 H   0  0  0  0  0  0  0  0  0  0  0  0  # atno 9165 bound_to 2997
   41.0128   -2.5270   39.2173 LP  0  0  0  0  0  0  0  0  0  0  0  0  # atno 11896 bound_to 969 
   42.4874   -3.2186   39.3346 LP  0  0  0  0  0  0  0  0  0  0  0  0  # atno 11897 bound_to 969 
   37.2353   -4.9373   40.8797 LP  0  0  0  0  0  0  0  0  0  0  0  0  # atno 11898 bound_to 975 
   38.5617   -5.5315   40.1354 LP  0  0  0  0  0  0  0  0  0  0  0  0  # atno 11899 bound_to 975 
   41.8829    4.6991   42.2104 LP  0  0  0  0  0  0  0  0  0  0  0  0  # atno 11904 bound_to 962 
   40.4761    4.2018   42.8738 LP  0  0  0  0  0  0  0  0  0  0  0  0  # atno 11905 bound_to 962 
   34.5363   -4.2550   43.7890 LP  0  0  0  0  0  0  0  0  0  0  0  0  # atno 11912 bound_to 2997
   33.7830   -3.7998   45.1645 LP  0  0  0  0  0  0  0  0  0  0  0  0  # atno 11913 bound_to 2997
   26.6670   -0.5193   41.8650 LP  0  0  0  0  0  0  0  0  0  0  0  0  # atno 11922 bound_to 1497
   28.1803    0.0870   41.7710 LP  0  0  0  0  0  0  0  0  0  0  0  0  # atno 11923 bound_to 1497
   26.7617   -0.1077   44.1375 LP  0  0  0  0  0  0  0  0  0  0  0  0  # atno 11930 bound_to 1220
   28.3368   -0.1241   44.5680 LP  0  0  0  0  0  0  0  0  0  0  0  0  # atno 11931 bound_to 1220

$$$$
****|SGG-4|sdf|1|dock45
  -GOLD-   9 72311473D 1   1.00000     0.00000

 46 48  0  0  0  0  0  0  0  0  1 V2000
   36.4261   -4.3657   37.0539 S   0  0  0  0  0  0  0  0  0  0  0  0
   34.9090   -4.3683   37.8603 C   0  0  0  0  0  0  0  0  0  0  0  0
   34.2864   -3.2104   37.8994 N   0  0  0  0  0  0  0  0  0  0  0  0
   35.0457   -2.2541   37.2556 C   0  0  0  0  0  0  0  0  0  0  0  0
   36.2454   -2.6902   36.7258 C   0  0  0  0  0  0  0  0  0  0  0  0
   37.3091   -1.9253   36.0064 C   0  0  0  0  0  0  0  0  0  0  0  0
   38.7561   -1.6466   37.0781 S   0  0  0  0  0  0  0  0  0  0  0  0
   38.5142    0.0585   37.4307 C   0  0  0  0  0  0  0  0  0  0  0  0
   39.3602    0.9914   36.8505 N   0  0  0  0  0  0  0  0  0  0  0  0
   39.1948    2.3433   37.1254 C   0  0  0  0  0  0  0  0  0  0  0  0
   40.0350    3.2910   36.5366 O   0  0  0  0  0  0  0  0  0  0  0  0
   38.2301    2.7301   37.9658 N   0  0  0  0  0  0  0  0  0  0  0  0
   37.4605    1.7696   38.4919 C   0  0  0  0  0  0  0  0  0  0  0  0
   36.2288    2.2927   39.6548 S   0  0  0  0  0  0  0  0  0  0  0  0
   35.9039    0.6571   40.3620 C   0  0  0  0  0  0  0  0  0  0  0  0
   34.5947    0.0782   39.8890 C   0  0  0  0  0  0  0  0  0  0  0  0
   33.9541    0.5838   38.7516 C   0  0  0  0  0  0  0  0  0  0  0  0
   32.7553    0.0223   38.3007 C   0  0  0  0  0  0  0  0  0  0  0  0
   32.1603   -1.0464   38.9858 C   0  0  0  0  0  0  0  0  0  0  0  0
   32.7995   -1.5422   40.1312 C   0  0  0  0  0  0  0  0  0  0  0  0
   33.9999   -0.9856   40.5795 C   0  0  0  0  0  0  0  0  0  0  0  0
   34.4709   -1.3914   41.4726 H   0  0  0  0  0  0  0  0  0  0  0  0
   32.3686   -2.3738   40.6849 H   0  0  0  0  0  0  0  0  0  0  0  0
   30.8768   -1.7016   38.5058 C   0  0  0  0  0  0  0  0  0  0  0  0
   30.3554   -0.9992   37.2503 C   0  0  0  0  0  0  0  0  0  0  0  0
   30.0887    0.0443   37.4513 H   0  0  0  0  0  0  0  0  0  0  0  0
   31.1111   -1.0026   36.4566 H   0  0  0  0  0  0  0  0  0  0  0  0
   29.4646   -1.5065   36.8649 H   0  0  0  0  0  0  0  0  0  0  0  0
   29.7912   -1.7620   39.5837 C   0  0  0  0  0  0  0  0  0  0  0  0
   29.3697   -0.7748   39.8015 H   0  0  0  0  0  0  0  0  0  0  0  0
   30.1881   -2.1739   40.5180 H   0  0  0  0  0  0  0  0  0  0  0  0
   28.9658   -2.4045   39.2578 H   0  0  0  0  0  0  0  0  0  0  0  0
   31.1028   -2.7417   38.2345 H   0  0  0  0  0  0  0  0  0  0  0  0
   32.2976    0.4278   37.4018 H   0  0  0  0  0  0  0  0  0  0  0  0
   34.3877    1.4155   38.2005 H   0  0  0  0  0  0  0  0  0  0  0  0
   35.8854    0.7158   41.4572 H   0  0  0  0  0  0  0  0  0  0  0  0
   36.7279   -0.0168   40.0989 H   0  0  0  0  0  0  0  0  0  0  0  0
   37.5532    0.4537   38.2657 N   0  0  0  0  0  0  0  0  0  0  0  0
   40.0932    0.6793   36.2291 H   0  0  0  0  0  0  0  0  0  0  0  0
   37.6223   -2.4976   35.1252 H   0  0  0  0  0  0  0  0  0  0  0  0
   36.9290   -0.9577   35.6614 H   0  0  0  0  0  0  0  0  0  0  0  0
   34.6704   -1.2389   37.2015 H   0  0  0  0  0  0  0  0  0  0  0  0
   34.3900   -5.6216   38.4715 C   0  0  0  0  0  0  0  0  0  0  0  0
   34.3414   -6.4190   37.7229 H   0  0  0  0  0  0  0  0  0  0  0  0
   33.3810   -5.4617   38.8644 H   0  0  0  0  0  0  0  0  0  0  0  0
   35.0337   -5.9660   39.2872 H   0  0  0  0  0  0  0  0  0  0  0  0
  1  2  1  0  0  0  0
  1  5  1  0  0  0  0
  2  3  2  0  0  0  0
  2 43  1  0  0  0  0
  3  4  1  0  0  0  0
  4  5  2  0  0  0  0
  4 42  1  0  0  0  0
  5  6  1  0  0  0  0
  6  7  1  0  0  0  0
  6 40  1  0  0  0  0
  6 41  1  0  0  0  0
  7  8  1  0  0  0  0
  8  9  1  0  0  0  0
  8 38  2  0  0  0  0
  9 10  1  0  0  0  0
  9 39  1  0  0  0  0
 10 11  2  0  0  0  0
 10 12  1  0  0  0  0
 12 13  2  0  0  0  0
 13 14  1  0  0  0  0
 13 38  1  0  0  0  0
 14 15  1  0  0  0  0
 15 16  1  0  0  0  0
 15 36  1  0  0  0  0
 15 37  1  0  0  0  0
 16 17  1  0  0  0  0
 16 21  2  0  0  0  0
 17 18  2  0  0  0  0
 17 35  1  0  0  0  0
 18 19  1  0  0  0  0
 18 34  1  0  0  0  0
 19 20  2  0  0  0  0
 19 24  1  0  0  0  0
 20 21  1  0  0  0  0
 20 23  1  0  0  0  0
 21 22  1  0  0  0  0
 24 25  1  0  0  0  0
 24 29  1  0  0  0  0
 24 33  1  0  0  0  0
 25 26  1  0  0  0  0
 25 27  1  0  0  0  0
 25 28  1  0  0  0  0
 29 30  1  0  0  0  0
 29 31  1  0  0  0  0
 29 32  1  0  0  0  0
 43 44  1  0  0  0  0
 43 45  1  0  0  0  0
 43 46  1  0  0  0  0
M  END
> <Gold.Goldscore.Fitness>
67.7756

> <Gold.Goldscore.External.HBond>
1.4847

> <Gold.Protein.ActiveResidues>
 GLU87   ILE88   VAL90   ASN91   ALA92   ASP94   ASN95   ARG98   ILE118  ASN120 
 LYS123  GLY124  ILE125  ILE141  PHE142  THR147  SER148  SER149  ASN150  TYR151 
 GLY160  GLY161  ARG162  ASN163  GLY164  TYR165  GLY166  ALA167  LYS168  LEU169 
 THR181  THR215  ILE217  ILE317  GLN376  LYS378  ILE33   TYR34   MG903  

> <Gold.Goldscore.Internal.HBond>
0.0

> <Gold.Goldscore.Internal.Torsion.Weighted>
-4.6232

> <Gold.Protein.RotatedTorsions>
[ 8833 2752 2751 2750 ] final  -92.65 input   60.00 | X-H torsion
[ 6906  969  968  965 ] final -179.89 input   59.99 | X-H torsion
[ 6910  975  974  971 ] final  -12.12 input   60.00 | X-H torsion
[ 6897  962  961  958 ] final   71.11 input   60.00 | X-H torsion
[ 9084 2997 2996 2994 ] final  -38.60 input   60.00 | X-H torsion
[ 7406 1497 1496 1493 ] final  170.76 input   60.00 | X-H torsion
[ 7140 1220 1219 1216 ] final  115.27 input   60.00 | X-H torsion
[ 6926  995  994  992 ] final   25.13 input   60.0

> <Gold.Goldscore.Constraint.Score>
0.0

> <Gold.Id.Protein>
1ZXM|1ZXM_protein|mol2

> <Gold.Protein.RotatedAtoms>
   40.6750    3.3830   41.8637 H   0  0  0  0  0  0  0  0  0  0  0  0  # atno 6897 bound_to 962 
   42.5663   -2.5035   38.2571 H   0  0  0  0  0  0  0  0  0  0  0  0  # atno 6906 bound_to 969 
   38.8111   -4.3840   40.0676 H   0  0  0  0  0  0  0  0  0  0  0  0  # atno 6910 bound_to 975 
   45.8911    1.1244   38.6740 H   0  0  0  0  0  0  0  0  0  0  0  0  # atno 6926 bound_to 995 
   28.0475    0.1168   43.0607 H   0  0  0  0  0  0  0  0  0  0  0  0  # atno 7140 bound_to 1220
   28.2838   -0.9017   41.0

> <Gold.Version>
5.3.0

> <Gold.Goldscore.Internal.Correction>
-0.0166

> <Gold.Goldscore.Internal.Vdw>
-1.3472

> <Gold.Goldscore.Internal.Vdw.Weighted>
-1.3472

> <Gold.Goldscore.External.HBond.Weighted>
1.4847

> <Gold.Goldscore.External.Vdw.Weighted>
72.2447

> <Gold.Goldscore.Internal.HBond.Weighted>
0.0

> <Gold.Goldscore.Hbonds>
donor molecule, donor type, donor heavy atom, donor atom, acceptor molecule, acceptor atom, score
      L1  H     1    27       P1   757  0.74

> <Gold.Goldscore.External.Vdw>
52.5416

> <Gold.Goldscore.Internal.Torsion>
-4.6232

> <Gold.Goldscore.Internal.Correction.Weighted>
-0.0166

> <Gold.Version>
5.3.0

> <Gold.Id.Protein>
1ZXM|1ZXM_protein|mol2

> <Gold.ASP.Fitness>
27.4571

> <Gold.ASP.ASP>
32.9880

> <Gold.ASP.Map>
-164.9400

> <Gold.ASP.DEClash>
4.2188

> <Gold.ASP.DEInternal>
1.3121

> <Gold.ASP.Internal.Correction>
0.1091

> <Gold.Protein.RotatedTorsions>
[ 8924 2752 2751 2750 ] final -122.87 input   60.00 | X-H torsion
[ 6908  969  968  965 ] final  -54.12 input   59.99 | X-H torsion
[ 6912  975  974  971 ] final -124.35 input   60.00 | X-H torsion
[ 6899  962  961  958 ] final  -24.94 input   60.00 | X-H torsion
[ 9165 2997 2996 2994 ] final   92.00 input   60.00 | X-H torsion
[ 7410 1497 1496 1493 ] final -124.52 input   60.00 | X-H torsion
[ 7137 1220 1219 1216 ] final   95.69 input   60.00 | X-H torsion
[ 6928  995  994  992 ] final  170.03 input   60.00 | X-H torsion

> <Gold.Protein.ActiveResidues>
 GLU87   ILE88   VAL90   ASN91   ALA92   ASP94   ASN95   ARG98   ILE118  ASN120 
 LYS123  GLY124  ILE125  ILE141  PHE142  THR147  SER148  SER149  ASN150  TYR151 
 GLY160  GLY161  ARG162  ASN163  GLY164  TYR165  GLY166  ALA167  LYS168  LEU169 
 THR181  THR215  ILE217  ILE317  GLN376  LYS378  ILE33   TYR34   MG903  

> <Gold.Protein.RotatedAtoms>
   41.8506    4.0804   41.6011 H   0  0  0  0  0  0  0  0  0  0  0  0  # atno 6899 bound_to 962 
   41.9459   -3.2010   39.6378 H   0  0  0  0  0  0  0  0  0  0  0  0  # atno 6908 bound_to 969 
   37.4586   -4.1748   40.8047 H   0  0  0  0  0  0  0  0  0  0  0  0  # atno 6912 bound_to 975 
   45.6734    1.5797   40.3865 H   0  0  0  0  0  0  0  0  0  0  0  0  # atno 6928 bound_to 995 
   27.7385    0.1188   42.9839 H   0  0  0  0  0  0  0  0  0  0  0  0  # atno 7137 bound_to 1220
   28.3335   -0.0674   41.6113 H   0  0  0  0  0  0  0  0  0  0  0  0  # atno 7410 bound_to 1497
   43.5355   -0.7957   30.9337 H   0  0  0  0  0  0  0  0  0  0  0  0  # atno 8924 bound_to 2752
   44.0610   -0.5487   29.3812 H   0  0  0  0  0  0  0  0  0  0  0  0  # atno 8925 bound_to 2752
   43.4178    0.7089   30.2485 H   0  0  0  0  0  0  0  0  0  0  0  0  # atno 8926 bound_to 2752
   34.6949   -5.2486   44.4642 H   0  0  0  0  0  0  0  0  0  0  0  0  # atno 9165 bound_to 2997
   42.6242   -2.5625   38.3035 LP  0  0  0  0  0  0  0  0  0  0  0  0  # atno 11896 bound_to 969 
   41.0821   -2.1946   38.6949 LP  0  0  0  0  0  0  0  0  0  0  0  0  # atno 11897 bound_to 969 
   37.8712   -5.7183   40.4955 LP  0  0  0  0  0  0  0  0  0  0  0  0  # atno 11898 bound_to 975 
   38.8553   -4.4991   40.0350 LP  0  0  0  0  0  0  0  0  0  0  0  0  # atno 11899 bound_to 975 
   41.1425    4.7636   42.8972 LP  0  0  0  0  0  0  0  0  0  0  0  0  # atno 11904 bound_to 962 
   40.4430    3.4853   42.1600 LP  0  0  0  0  0  0  0  0  0  0  0  0  # atno 11905 bound_to 962 
   34.2214   -3.7531   44.0314 LP  0  0  0  0  0  0  0  0  0  0  0  0  # atno 11912 bound_to 2997
   33.8670   -4.3264   45.5188 LP  0  0  0  0  0  0  0  0  0  0  0  0  # atno 11913 bound_to 2997
   27.5389   -1.3512   41.0045 LP  0  0  0  0  0  0  0  0  0  0  0  0  # atno 11922 bound_to 1497
   26.7662   -0.2971   41.9835 LP  0  0  0  0  0  0  0  0  0  0  0  0  # atno 11923 bound_to 1497
   26.8254   -0.1334   44.3069 LP  0  0  0  0  0  0  0  0  0  0  0  0  # atno 11930 bound_to 1220
   28.4533   -0.0972   44.4297 LP  0  0  0  0  0  0  0  0  0  0  0  0  # atno 11931 bound_to 1220

$$$$
****|SGG-4|sdf|1|dock31
  -GOLD-   9 72311463D 1   1.00000     0.00000

 46 48  0  0  0  0  0  0  0  0  1 V2000
   37.4524   -0.1072   37.1582 S   0  0  0  0  0  0  0  0  0  0  0  0
   39.1343    0.2175   37.0269 C   0  0  0  0  0  0  0  0  0  0  0  0
   39.5304    1.3663   37.5303 N   0  0  0  0  0  0  0  0  0  0  0  0
   38.4461    2.0406   38.0550 C   0  0  0  0  0  0  0  0  0  0  0  0
   37.2265    1.3993   37.9503 C   0  0  0  0  0  0  0  0  0  0  0  0
   35.8668    1.8516   38.3754 C   0  0  0  0  0  0  0  0  0  0  0  0
   35.6377    1.6450   40.1712 S   0  0  0  0  0  0  0  0  0  0  0  0
   35.9738   -0.0759   40.2962 C   0  0  0  0  0  0  0  0  0  0  0  0
   37.2398   -0.5388   39.9714 N   0  0  0  0  0  0  0  0  0  0  0  0
   37.5235   -1.8966   40.0509 C   0  0  0  0  0  0  0  0  0  0  0  0
   38.7992   -2.3705   39.7367 O   0  0  0  0  0  0  0  0  0  0  0  0
   36.5625   -2.7483   40.4221 N   0  0  0  0  0  0  0  0  0  0  0  0
   35.3647   -2.2257   40.7109 C   0  0  0  0  0  0  0  0  0  0  0  0
   34.0836   -3.3745   41.1376 S   0  0  0  0  0  0  0  0  0  0  0  0
   33.3655   -3.5089   39.4802 C   0  0  0  0  0  0  0  0  0  0  0  0
   32.7529   -2.2125   39.0144 C   0  0  0  0  0  0  0  0  0  0  0  0
   33.3640   -1.4471   38.0142 C   0  0  0  0  0  0  0  0  0  0  0  0
   32.7748   -0.2608   37.5653 C   0  0  0  0  0  0  0  0  0  0  0  0
   31.5701    0.1965   38.1175 C   0  0  0  0  0  0  0  0  0  0  0  0
   30.9675   -0.5673   39.1273 C   0  0  0  0  0  0  0  0  0  0  0  0
   31.5524   -1.7553   39.5728 C   0  0  0  0  0  0  0  0  0  0  0  0
   31.0612   -2.3252   40.3590 H   0  0  0  0  0  0  0  0  0  0  0  0
   30.0298   -0.2450   39.5752 H   0  0  0  0  0  0  0  0  0  0  0  0
   30.8857    1.4623   37.6314 C   0  0  0  0  0  0  0  0  0  0  0  0
   29.5569    1.1243   36.9521 C   0  0  0  0  0  0  0  0  0  0  0  0
   29.7047    0.5137   36.0545 H   0  0  0  0  0  0  0  0  0  0  0  0
   28.9009    0.5663   37.6298 H   0  0  0  0  0  0  0  0  0  0  0  0
   29.0306    2.0378   36.6554 H   0  0  0  0  0  0  0  0  0  0  0  0
   31.7671    2.3076   36.7080 C   0  0  0  0  0  0  0  0  0  0  0  0
   31.9060    1.8400   35.7273 H   0  0  0  0  0  0  0  0  0  0  0  0
   32.7568    2.4686   37.1490 H   0  0  0  0  0  0  0  0  0  0  0  0
   31.3112    3.2895   36.5395 H   0  0  0  0  0  0  0  0  0  0  0  0
   30.6617    2.0890   38.5054 H   0  0  0  0  0  0  0  0  0  0  0  0
   33.2677    0.2962   36.7723 H   0  0  0  0  0  0  0  0  0  0  0  0
   34.3017   -1.7723   37.5687 H   0  0  0  0  0  0  0  0  0  0  0  0
   32.5923   -4.2867   39.4653 H   0  0  0  0  0  0  0  0  0  0  0  0
   34.1441   -3.8286   38.7775 H   0  0  0  0  0  0  0  0  0  0  0  0
   35.0223   -0.9325   40.6677 N   0  0  0  0  0  0  0  0  0  0  0  0
   37.9494    0.1182   39.6787 H   0  0  0  0  0  0  0  0  0  0  0  0
   35.7502    2.9116   38.1202 H   0  0  0  0  0  0  0  0  0  0  0  0
   35.0863    1.2912   37.8494 H   0  0  0  0  0  0  0  0  0  0  0  0
   38.6052    3.0118   38.5091 H   0  0  0  0  0  0  0  0  0  0  0  0
   40.0347   -0.7627   36.3621 C   0  0  0  0  0  0  0  0  0  0  0  0
   39.9477   -1.7445   36.8388 H   0  0  0  0  0  0  0  0  0  0  0  0
   41.0762   -0.4360   36.4436 H   0  0  0  0  0  0  0  0  0  0  0  0
   39.7859   -0.8809   35.3027 H   0  0  0  0  0  0  0  0  0  0  0  0
  1  2  1  0  0  0  0
  1  5  1  0  0  0  0
  2  3  2  0  0  0  0
  2 43  1  0  0  0  0
  3  4  1  0  0  0  0
  4  5  2  0  0  0  0
  4 42  1  0  0  0  0
  5  6  1  0  0  0  0
  6  7  1  0  0  0  0
  6 40  1  0  0  0  0
  6 41  1  0  0  0  0
  7  8  1  0  0  0  0
  8  9  1  0  0  0  0
  8 38  2  0  0  0  0
  9 10  1  0  0  0  0
  9 39  1  0  0  0  0
 10 11  2  0  0  0  0
 10 12  1  0  0  0  0
 12 13  2  0  0  0  0
 13 14  1  0  0  0  0
 13 38  1  0  0  0  0
 14 15  1  0  0  0  0
 15 16  1  0  0  0  0
 15 36  1  0  0  0  0
 15 37  1  0  0  0  0
 16 17  1  0  0  0  0
 16 21  2  0  0  0  0
 17 18  2  0  0  0  0
 17 35  1  0  0  0  0
 18 19  1  0  0  0  0
 18 34  1  0  0  0  0
 19 20  2  0  0  0  0
 19 24  1  0  0  0  0
 20 21  1  0  0  0  0
 20 23  1  0  0  0  0
 21 22  1  0  0  0  0
 24 25  1  0  0  0  0
 24 29  1  0  0  0  0
 24 33  1  0  0  0  0
 25 26  1  0  0  0  0
 25 27  1  0  0  0  0
 25 28  1  0  0  0  0
 29 30  1  0  0  0  0
 29 31  1  0  0  0  0
 29 32  1  0  0  0  0
 43 44  1  0  0  0  0
 43 45  1  0  0  0  0
 43 46  1  0  0  0  0
M  END
> <Gold.Goldscore.Fitness>
67.7756

> <Gold.Goldscore.External.HBond>
1.4847

> <Gold.Protein.ActiveResidues>
 GLU87   ILE88   VAL90   ASN91   ALA92   ASP94   ASN95   ARG98   ILE118  ASN120 
 LYS123  GLY124  ILE125  ILE141  PHE142  THR147  SER148  SER149  ASN150  TYR151 
 GLY160  GLY161  ARG162  ASN163  GLY164  TYR165  GLY166  ALA167  LYS168  LEU169 
 THR181  THR215  ILE217  ILE317  GLN376  LYS378  ILE33   TYR34   MG903  

> <Gold.Goldscore.Internal.HBond>
0.0

> <Gold.Goldscore.Internal.Torsion.Weighted>
-4.6232

> <Gold.Protein.RotatedTorsions>
[ 8833 2752 2751 2750 ] final  -92.65 input   60.00 | X-H torsion
[ 6906  969  968  965 ] final -179.89 input   59.99 | X-H torsion
[ 6910  975  974  971 ] final  -12.12 input   60.00 | X-H torsion
[ 6897  962  961  958 ] final   71.11 input   60.00 | X-H torsion
[ 9084 2997 2996 2994 ] final  -38.60 input   60.00 | X-H torsion
[ 7406 1497 1496 1493 ] final  170.76 input   60.00 | X-H torsion
[ 7140 1220 1219 1216 ] final  115.27 input   60.00 | X-H torsion
[ 6926  995  994  992 ] final   25.13 input   60.0

> <Gold.Goldscore.Constraint.Score>
0.0

> <Gold.Id.Protein>
1ZXM|1ZXM_protein|mol2

> <Gold.Protein.RotatedAtoms>
   40.6750    3.3830   41.8637 H   0  0  0  0  0  0  0  0  0  0  0  0  # atno 6897 bound_to 962 
   42.5663   -2.5035   38.2571 H   0  0  0  0  0  0  0  0  0  0  0  0  # atno 6906 bound_to 969 
   38.8111   -4.3840   40.0676 H   0  0  0  0  0  0  0  0  0  0  0  0  # atno 6910 bound_to 975 
   45.8911    1.1244   38.6740 H   0  0  0  0  0  0  0  0  0  0  0  0  # atno 6926 bound_to 995 
   28.0475    0.1168   43.0607 H   0  0  0  0  0  0  0  0  0  0  0  0  # atno 7140 bound_to 1220
   28.2838   -0.9017   41.0

> <Gold.Version>
5.3.0

> <Gold.Goldscore.Internal.Correction>
-0.0166

> <Gold.Goldscore.Internal.Vdw>
-1.3472

> <Gold.Goldscore.Internal.Vdw.Weighted>
-1.3472

> <Gold.Goldscore.External.HBond.Weighted>
1.4847

> <Gold.Goldscore.External.Vdw.Weighted>
72.2447

> <Gold.Goldscore.Internal.HBond.Weighted>
0.0

> <Gold.Goldscore.Hbonds>
donor molecule, donor type, donor heavy atom, donor atom, acceptor molecule, acceptor atom, score
      L1  H     1    27       P1   757  0.74

> <Gold.Goldscore.External.Vdw>
52.5416

> <Gold.Goldscore.Internal.Torsion>
-4.6232

> <Gold.Goldscore.Internal.Correction.Weighted>
-0.0166

> <Gold.Version>
5.3.0

> <Gold.Id.Protein>
1ZXM|1ZXM_protein|mol2

> <Gold.ASP.Fitness>
27.4406

> <Gold.ASP.ASP>
32.0920

> <Gold.ASP.Map>
-160.4600

> <Gold.ASP.DEClash>
0.5809

> <Gold.ASP.DEInternal>
4.0704

> <Gold.ASP.Internal.Correction>
0.1091

> <Gold.Protein.RotatedTorsions>
[ 8924 2752 2751 2750 ] final    2.75 input   60.00 | X-H torsion
[ 6908  969  968  965 ] final  174.71 input   59.99 | X-H torsion
[ 6912  975  974  971 ] final -145.66 input   60.00 | X-H torsion
[ 6899  962  961  958 ] final  -75.75 input   60.00 | X-H torsion
[ 9165 2997 2996 2994 ] final   53.46 input   60.00 | X-H torsion
[ 7410 1497 1496 1493 ] final -153.45 input   60.00 | X-H torsion
[ 7137 1220 1219 1216 ] final  153.15 input   60.00 | X-H torsion
[ 6928  995  994  992 ] final   69.46 input   60.00 | X-H torsion

> <Gold.Protein.ActiveResidues>
 GLU87   ILE88   VAL90   ASN91   ALA92   ASP94   ASN95   ARG98   ILE118  ASN120 
 LYS123  GLY124  ILE125  ILE141  PHE142  THR147  SER148  SER149  ASN150  TYR151 
 GLY160  GLY161  ARG162  ASN163  GLY164  TYR165  GLY166  ALA167  LYS168  LEU169 
 THR181  THR215  ILE217  ILE317  GLN376  LYS378  ILE33   TYR34   MG903  

> <Gold.Protein.RotatedAtoms>
   41.9027    4.6588   42.1560 H   0  0  0  0  0  0  0  0  0  0  0  0  # atno 6899 bound_to 962 
   42.5099   -2.4506   38.2144 H   0  0  0  0  0  0  0  0  0  0  0  0  # atno 6908 bound_to 969 
   37.2948   -4.4712   40.8761 H   0  0  0  0  0  0  0  0  0  0  0  0  # atno 6912 bound_to 975 
   45.2969    1.2079   39.0469 H   0  0  0  0  0  0  0  0  0  0  0  0  # atno 6928 bound_to 995 
   28.4948    0.0650   43.4688 H   0  0  0  0  0  0  0  0  0  0  0  0  # atno 7137 bound_to 1220
   28.4497   -0.4224   41.3299 H   0  0  0  0  0  0  0  0  0  0  0  0  # atno 7410 bound_to 1497
   44.0526   -0.4620   29.3464 H   0  0  0  0  0  0  0  0  0  0  0  0  # atno 8924 bound_to 2752
   43.3893    0.6905   30.3359 H   0  0  0  0  0  0  0  0  0  0  0  0  # atno 8925 bound_to 2752
   43.5726   -0.8640   30.8810 H   0  0  0  0  0  0  0  0  0  0  0  0  # atno 8926 bound_to 2752
   34.7275   -4.8685   43.9780 H   0  0  0  0  0  0  0  0  0  0  0  0  # atno 9165 bound_to 2997
   41.0213   -2.2754   38.8481 LP  0  0  0  0  0  0  0  0  0  0  0  0  # atno 11896 bound_to 969 
   42.1169   -3.2373   39.5836 LP  0  0  0  0  0  0  0  0  0  0  0  0  # atno 11897 bound_to 969 
   38.1782   -5.7242   40.3305 LP  0  0  0  0  0  0  0  0  0  0  0  0  # atno 11898 bound_to 975 
   38.7132   -4.1947   40.1280 LP  0  0  0  0  0  0  0  0  0  0  0  0  # atno 11899 bound_to 975 
   40.5125    4.2562   42.8997 LP  0  0  0  0  0  0  0  0  0  0  0  0  # atno 11904 bound_to 962 
   41.0206    3.4102   41.5987 LP  0  0  0  0  0  0  0  0  0  0  0  0  # atno 11905 bound_to 962 
   33.9320   -3.5697   44.5509 LP  0  0  0  0  0  0  0  0  0  0  0  0  # atno 11912 bound_to 2997
   34.1236   -4.8925   45.4889 LP  0  0  0  0  0  0  0  0  0  0  0  0  # atno 11913 bound_to 2997
   27.1005   -1.3186   41.1738 LP  0  0  0  0  0  0  0  0  0  0  0  0  # atno 11922 bound_to 1497
   27.0874    0.0279   42.0975 LP  0  0  0  0  0  0  0  0  0  0  0  0  # atno 11923 bound_to 1497
   26.8692    0.0154   43.4139 LP  0  0  0  0  0  0  0  0  0  0  0  0  # atno 11930 bound_to 1220
   27.6478   -0.1919   44.8343 LP  0  0  0  0  0  0  0  0  0  0  0  0  # atno 11931 bound_to 1220

$$$$
****|SGG-4|sdf|1|dock16
  -GOLD-   9 72311453D 1   1.00000     0.00000

 46 48  0  0  0  0  0  0  0  0  1 V2000
   36.4574   -5.2860   37.0693 S   0  0  0  0  0  0  0  0  0  0  0  0
   35.5360   -6.1240   38.2526 C   0  0  0  0  0  0  0  0  0  0  0  0
   35.0149   -5.3748   39.1997 N   0  0  0  0  0  0  0  0  0  0  0  0
   35.3584   -4.0547   38.9878 C   0  0  0  0  0  0  0  0  0  0  0  0
   36.1398   -3.8040   37.8759 C   0  0  0  0  0  0  0  0  0  0  0  0
   36.7106   -2.5159   37.3770 C   0  0  0  0  0  0  0  0  0  0  0  0
   38.2103   -2.0588   38.3054 S   0  0  0  0  0  0  0  0  0  0  0  0
   38.1961   -0.3248   38.0165 C   0  0  0  0  0  0  0  0  0  0  0  0
   39.1318    0.2199   37.1504 N   0  0  0  0  0  0  0  0  0  0  0  0
   39.1466    1.5895   36.9174 C   0  0  0  0  0  0  0  0  0  0  0  0
   40.0782    2.1456   36.0378 O   0  0  0  0  0  0  0  0  0  0  0  0
   38.2674    2.3734   37.5491 N   0  0  0  0  0  0  0  0  0  0  0  0
   37.4020    1.7739   38.3757 C   0  0  0  0  0  0  0  0  0  0  0  0
   36.2862    2.8340   39.2555 S   0  0  0  0  0  0  0  0  0  0  0  0
   35.7526    1.6061   40.4755 C   0  0  0  0  0  0  0  0  0  0  0  0
   34.6784    0.6946   39.9388 C   0  0  0  0  0  0  0  0  0  0  0  0
   34.2312   -0.4047   40.6813 C   0  0  0  0  0  0  0  0  0  0  0  0
   33.2131   -1.2286   40.1909 C   0  0  0  0  0  0  0  0  0  0  0  0
   32.6303   -0.9829   38.9398 C   0  0  0  0  0  0  0  0  0  0  0  0
   33.0894    0.1124   38.1943 C   0  0  0  0  0  0  0  0  0  0  0  0
   34.1026    0.9394   38.6855 C   0  0  0  0  0  0  0  0  0  0  0  0
   34.4383    1.7809   38.0827 H   0  0  0  0  0  0  0  0  0  0  0  0
   32.6566    0.3356   37.2213 H   0  0  0  0  0  0  0  0  0  0  0  0
   31.5006   -1.8371   38.3912 C   0  0  0  0  0  0  0  0  0  0  0  0
   30.6824   -1.0477   37.3670 C   0  0  0  0  0  0  0  0  0  0  0  0
   30.1926   -0.1798   37.8222 H   0  0  0  0  0  0  0  0  0  0  0  0
   31.3198   -0.6818   36.5541 H   0  0  0  0  0  0  0  0  0  0  0  0
   29.9053   -1.6790   36.9231 H   0  0  0  0  0  0  0  0  0  0  0  0
   30.5938   -2.4111   39.4832 C   0  0  0  0  0  0  0  0  0  0  0  0
   29.9707   -1.6407   39.9501 H   0  0  0  0  0  0  0  0  0  0  0  0
   31.1839   -2.8920   40.2709 H   0  0  0  0  0  0  0  0  0  0  0  0
   29.9195   -3.1647   39.0617 H   0  0  0  0  0  0  0  0  0  0  0  0
   31.9423   -2.6978   37.8708 H   0  0  0  0  0  0  0  0  0  0  0  0
   32.8774   -2.0606   40.8049 H   0  0  0  0  0  0  0  0  0  0  0  0
   34.6663   -0.6250   41.6537 H   0  0  0  0  0  0  0  0  0  0  0  0
   35.3704    2.1069   41.3735 H   0  0  0  0  0  0  0  0  0  0  0  0
   36.6205    1.0157   40.7924 H   0  0  0  0  0  0  0  0  0  0  0  0
   37.3214    0.4644   38.6403 N   0  0  0  0  0  0  0  0  0  0  0  0
   39.7982   -0.3864   36.6931 H   0  0  0  0  0  0  0  0  0  0  0  0
   36.9674   -2.6292   36.3171 H   0  0  0  0  0  0  0  0  0  0  0  0
   35.9783   -1.7056   37.4608 H   0  0  0  0  0  0  0  0  0  0  0  0
   35.0062   -3.3049   39.6866 H   0  0  0  0  0  0  0  0  0  0  0  0
   35.3852   -7.6021   38.1731 C   0  0  0  0  0  0  0  0  0  0  0  0
   34.9726   -7.8913   37.2011 H   0  0  0  0  0  0  0  0  0  0  0  0
   34.7016   -7.9554   38.9516 H   0  0  0  0  0  0  0  0  0  0  0  0
   36.3473   -8.1101   38.2938 H   0  0  0  0  0  0  0  0  0  0  0  0
  1  2  1  0  0  0  0
  1  5  1  0  0  0  0
  2  3  2  0  0  0  0
  2 43  1  0  0  0  0
  3  4  1  0  0  0  0
  4  5  2  0  0  0  0
  4 42  1  0  0  0  0
  5  6  1  0  0  0  0
  6  7  1  0  0  0  0
  6 40  1  0  0  0  0
  6 41  1  0  0  0  0
  7  8  1  0  0  0  0
  8  9  1  0  0  0  0
  8 38  2  0  0  0  0
  9 10  1  0  0  0  0
  9 39  1  0  0  0  0
 10 11  2  0  0  0  0
 10 12  1  0  0  0  0
 12 13  2  0  0  0  0
 13 14  1  0  0  0  0
 13 38  1  0  0  0  0
 14 15  1  0  0  0  0
 15 16  1  0  0  0  0
 15 36  1  0  0  0  0
 15 37  1  0  0  0  0
 16 17  1  0  0  0  0
 16 21  2  0  0  0  0
 17 18  2  0  0  0  0
 17 35  1  0  0  0  0
 18 19  1  0  0  0  0
 18 34  1  0  0  0  0
 19 20  2  0  0  0  0
 19 24  1  0  0  0  0
 20 21  1  0  0  0  0
 20 23  1  0  0  0  0
 21 22  1  0  0  0  0
 24 25  1  0  0  0  0
 24 29  1  0  0  0  0
 24 33  1  0  0  0  0
 25 26  1  0  0  0  0
 25 27  1  0  0  0  0
 25 28  1  0  0  0  0
 29 30  1  0  0  0  0
 29 31  1  0  0  0  0
 29 32  1  0  0  0  0
 43 44  1  0  0  0  0
 43 45  1  0  0  0  0
 43 46  1  0  0  0  0
M  END
> <Gold.Goldscore.Fitness>
67.7756

> <Gold.Goldscore.External.HBond>
1.4847

> <Gold.Protein.ActiveResidues>
 GLU87   ILE88   VAL90   ASN91   ALA92   ASP94   ASN95   ARG98   ILE118  ASN120 
 LYS123  GLY124  ILE125  ILE141  PHE142  THR147  SER148  SER149  ASN150  TYR151 
 GLY160  GLY161  ARG162  ASN163  GLY164  TYR165  GLY166  ALA167  LYS168  LEU169 
 THR181  THR215  ILE217  ILE317  GLN376  LYS378  ILE33   TYR34   MG903  

> <Gold.Goldscore.Internal.HBond>
0.0

> <Gold.Goldscore.Internal.Torsion.Weighted>
-4.6232

> <Gold.Protein.RotatedTorsions>
[ 8833 2752 2751 2750 ] final  -92.65 input   60.00 | X-H torsion
[ 6906  969  968  965 ] final -179.89 input   59.99 | X-H torsion
[ 6910  975  974  971 ] final  -12.12 input   60.00 | X-H torsion
[ 6897  962  961  958 ] final   71.11 input   60.00 | X-H torsion
[ 9084 2997 2996 2994 ] final  -38.60 input   60.00 | X-H torsion
[ 7406 1497 1496 1493 ] final  170.76 input   60.00 | X-H torsion
[ 7140 1220 1219 1216 ] final  115.27 input   60.00 | X-H torsion
[ 6926  995  994  992 ] final   25.13 input   60.0

> <Gold.Goldscore.Constraint.Score>
0.0

> <Gold.Id.Protein>
1ZXM|1ZXM_protein|mol2

> <Gold.Protein.RotatedAtoms>
   40.6750    3.3830   41.8637 H   0  0  0  0  0  0  0  0  0  0  0  0  # atno 6897 bound_to 962 
   42.5663   -2.5035   38.2571 H   0  0  0  0  0  0  0  0  0  0  0  0  # atno 6906 bound_to 969 
   38.8111   -4.3840   40.0676 H   0  0  0  0  0  0  0  0  0  0  0  0  # atno 6910 bound_to 975 
   45.8911    1.1244   38.6740 H   0  0  0  0  0  0  0  0  0  0  0  0  # atno 6926 bound_to 995 
   28.0475    0.1168   43.0607 H   0  0  0  0  0  0  0  0  0  0  0  0  # atno 7140 bound_to 1220
   28.2838   -0.9017   41.0

> <Gold.Version>
5.3.0

> <Gold.Goldscore.Internal.Correction>
-0.0166

> <Gold.Goldscore.Internal.Vdw>
-1.3472

> <Gold.Goldscore.Internal.Vdw.Weighted>
-1.3472

> <Gold.Goldscore.External.HBond.Weighted>
1.4847

> <Gold.Goldscore.External.Vdw.Weighted>
72.2447

> <Gold.Goldscore.Internal.HBond.Weighted>
0.0

> <Gold.Goldscore.Hbonds>
donor molecule, donor type, donor heavy atom, donor atom, acceptor molecule, acceptor atom, score
      L1  H     1    27       P1   757  0.74

> <Gold.Goldscore.External.Vdw>
52.5416

> <Gold.Goldscore.Internal.Torsion>
-4.6232

> <Gold.Goldscore.Internal.Correction.Weighted>
-0.0166

> <Gold.Version>
5.3.0

> <Gold.Id.Protein>
1ZXM|1ZXM_protein|mol2

> <Gold.ASP.Fitness>
27.3152

> <Gold.ASP.ASP>
31.5460

> <Gold.ASP.Map>
-157.7300

> <Gold.ASP.DEClash>
1.5808

> <Gold.ASP.DEInternal>
2.6501

> <Gold.ASP.Internal.Correction>
0.1091

> <Gold.Protein.RotatedTorsions>
[ 8924 2752 2751 2750 ] final   -3.26 input   60.00 | X-H torsion
[ 6908  969  968  965 ] final   34.87 input   59.99 | X-H torsion
[ 6912  975  974  971 ] final  -38.56 input   60.00 | X-H torsion
[ 6899  962  961  958 ] final   -5.99 input   60.00 | X-H torsion
[ 9165 2997 2996 2994 ] final   -8.14 input   60.00 | X-H torsion
[ 7410 1497 1496 1493 ] final   98.62 input   60.00 | X-H torsion
[ 7137 1220 1219 1216 ] final   23.77 input   60.00 | X-H torsion
[ 6928  995  994  992 ] final -108.93 input   60.00 | X-H torsion

> <Gold.Protein.ActiveResidues>
 GLU87   ILE88   VAL90   ASN91   ALA92   ASP94   ASN95   ARG98   ILE118  ASN120 
 LYS123  GLY124  ILE125  ILE141  PHE142  THR147  SER148  SER149  ASN150  TYR151 
 GLY160  GLY161  ARG162  ASN163  GLY164  TYR165  GLY166  ALA167  LYS168  LEU169 
 THR181  THR215  ILE217  ILE317  GLN376  LYS378  ILE33   TYR34   MG903  

> <Gold.Protein.RotatedAtoms>
   41.6823    3.8439   41.4973 H   0  0  0  0  0  0  0  0  0  0  0  0  # atno 6899 bound_to 962 
   41.0018   -2.4515   39.1190 H   0  0  0  0  0  0  0  0  0  0  0  0  # atno 6908 bound_to 969 
   38.5795   -4.0534   40.2102 H   0  0  0  0  0  0  0  0  0  0  0  0  # atno 6912 bound_to 975 
   46.8425    1.5237   40.0551 H   0  0  0  0  0  0  0  0  0  0  0  0  # atno 6928 bound_to 995 
   26.8059   -0.0073   43.5521 H   0  0  0  0  0  0  0  0  0  0  0  0  # atno 7137 bound_to 1220
   27.2772   -1.3497   41.0904 H   0  0  0  0  0  0  0  0  0  0  0  0  # atno 7410 bound_to 1497
   44.0616   -0.5545   29.3839 H   0  0  0  0  0  0  0  0  0  0  0  0  # atno 8924 bound_to 2752
   43.4198    0.7099   30.2424 H   0  0  0  0  0  0  0  0  0  0  0  0  # atno 8925 bound_to 2752
   43.5330   -0.7908   30.9370 H   0  0  0  0  0  0  0  0  0  0  0  0  # atno 8926 bound_to 2752
   34.3875   -3.9787   43.8686 H   0  0  0  0  0  0  0  0  0  0  0  0  # atno 9165 bound_to 2997
   42.3955   -3.2372   39.4166 LP  0  0  0  0  0  0  0  0  0  0  0  0  # atno 11896 bound_to 969 
   42.2616   -2.2746   38.1042 LP  0  0  0  0  0  0  0  0  0  0  0  0  # atno 11897 bound_to 969 
   37.2389   -4.6742   40.8923 LP  0  0  0  0  0  0  0  0  0  0  0  0  # atno 11898 bound_to 975 
   38.3588   -5.6654   40.2368 LP  0  0  0  0  0  0  0  0  0  0  0  0  # atno 11899 bound_to 975 
   41.4074    4.8400   42.7544 LP  0  0  0  0  0  0  0  0  0  0  0  0  # atno 11904 bound_to 962 
   40.3477    3.6471   42.4073 LP  0  0  0  0  0  0  0  0  0  0  0  0  # atno 11905 bound_to 962 
   33.7974   -4.0389   45.3840 LP  0  0  0  0  0  0  0  0  0  0  0  0  # atno 11912 bound_to 2997
   34.6005   -5.3194   44.7660 LP  0  0  0  0  0  0  0  0  0  0  0  0  # atno 11913 bound_to 2997
   26.9338   -0.0936   42.0662 LP  0  0  0  0  0  0  0  0  0  0  0  0  # atno 11922 bound_to 1497
   28.4351   -0.2633   41.4464 LP  0  0  0  0  0  0  0  0  0  0  0  0  # atno 11923 bound_to 1497
   27.8017   -0.1853   44.8267 LP  0  0  0  0  0  0  0  0  0  0  0  0  # atno 11930 bound_to 1220
   28.4164    0.0816   43.3376 LP  0  0  0  0  0  0  0  0  0  0  0  0  # atno 11931 bound_to 1220

$$$$
****|SGG-4|sdf|1|dock94
  -GOLD-   9 72311523D 1   1.00000     0.00000

 46 48  0  0  0  0  0  0  0  0  1 V2000
   40.0442   -0.5705   35.9043 S   0  0  0  0  0  0  0  0  0  0  0  0
   40.7530    0.6615   34.9394 C   0  0  0  0  0  0  0  0  0  0  0  0
   40.6087    1.8883   35.3911 N   0  0  0  0  0  0  0  0  0  0  0  0
   39.8950    1.8659   36.5726 C   0  0  0  0  0  0  0  0  0  0  0  0
   39.5002    0.6183   37.0172 C   0  0  0  0  0  0  0  0  0  0  0  0
   38.6982    0.2399   38.2204 C   0  0  0  0  0  0  0  0  0  0  0  0
   36.9146    0.4517   37.9138 S   0  0  0  0  0  0  0  0  0  0  0  0
   36.3524   -1.1231   38.4564 C   0  0  0  0  0  0  0  0  0  0  0  0
   36.8075   -2.2599   37.8059 N   0  0  0  0  0  0  0  0  0  0  0  0
   36.3663   -3.5139   38.2102 C   0  0  0  0  0  0  0  0  0  0  0  0
   36.8282   -4.6651   37.5682 O   0  0  0  0  0  0  0  0  0  0  0  0
   35.4883   -3.6100   39.2134 N   0  0  0  0  0  0  0  0  0  0  0  0
   35.0900   -2.4670   39.7848 C   0  0  0  0  0  0  0  0  0  0  0  0
   33.8762   -2.6071   41.0693 S   0  0  0  0  0  0  0  0  0  0  0  0
   32.4753   -2.9954   39.9889 C   0  0  0  0  0  0  0  0  0  0  0  0
   31.9571   -1.7796   39.2634 C   0  0  0  0  0  0  0  0  0  0  0  0
   32.4094   -0.4971   39.5955 C   0  0  0  0  0  0  0  0  0  0  0  0
   31.9474    0.6236   38.8983 C   0  0  0  0  0  0  0  0  0  0  0  0
   31.0101    0.4903   37.8642 C   0  0  0  0  0  0  0  0  0  0  0  0
   30.5511   -0.7951   37.5427 C   0  0  0  0  0  0  0  0  0  0  0  0
   31.0159   -1.9160   38.2350 C   0  0  0  0  0  0  0  0  0  0  0  0
   30.6395   -2.9002   37.9630 H   0  0  0  0  0  0  0  0  0  0  0  0
   29.8272   -0.9364   36.7428 H   0  0  0  0  0  0  0  0  0  0  0  0
   30.5119    1.6815   37.0645 C   0  0  0  0  0  0  0  0  0  0  0  0
   29.5119    1.2290   35.9984 C   0  0  0  0  0  0  0  0  0  0  0  0
   29.9772    0.5628   35.2635 H   0  0  0  0  0  0  0  0  0  0  0  0
   28.6725    0.6898   36.4518 H   0  0  0  0  0  0  0  0  0  0  0  0
   29.1031    2.0910   35.4605 H   0  0  0  0  0  0  0  0  0  0  0  0
   31.6422    2.5002   36.4350 C   0  0  0  0  0  0  0  0  0  0  0  0
   32.1250    1.9699   35.6072 H   0  0  0  0  0  0  0  0  0  0  0  0
   32.4117    2.7421   37.1762 H   0  0  0  0  0  0  0  0  0  0  0  0
   31.2530    3.4432   36.0355 H   0  0  0  0  0  0  0  0  0  0  0  0
   29.9832    2.3582   37.7495 H   0  0  0  0  0  0  0  0  0  0  0  0
   32.3369    1.6015   39.1703 H   0  0  0  0  0  0  0  0  0  0  0  0
   33.1331   -0.3595   40.3960 H   0  0  0  0  0  0  0  0  0  0  0  0
   31.6555   -3.4296   40.5743 H   0  0  0  0  0  0  0  0  0  0  0  0
   32.7821   -3.7603   39.2657 H   0  0  0  0  0  0  0  0  0  0  0  0
   35.4787   -1.2288   39.4576 N   0  0  0  0  0  0  0  0  0  0  0  0
   37.4598   -2.1669   37.0400 H   0  0  0  0  0  0  0  0  0  0  0  0
   38.8967   -0.8109   38.4622 H   0  0  0  0  0  0  0  0  0  0  0  0
   38.9854    0.8446   39.0874 H   0  0  0  0  0  0  0  0  0  0  0  0
   39.6878    2.8034   37.0752 H   0  0  0  0  0  0  0  0  0  0  0  0
   41.4563    0.3095   33.6764 C   0  0  0  0  0  0  0  0  0  0  0  0
   42.2479   -0.4213   33.8719 H   0  0  0  0  0  0  0  0  0  0  0  0
   41.9166    1.2006   33.2381 H   0  0  0  0  0  0  0  0  0  0  0  0
   40.7700   -0.1274   32.9440 H   0  0  0  0  0  0  0  0  0  0  0  0
  1  2  1  0  0  0  0
  1  5  1  0  0  0  0
  2  3  2  0  0  0  0
  2 43  1  0  0  0  0
  3  4  1  0  0  0  0
  4  5  2  0  0  0  0
  4 42  1  0  0  0  0
  5  6  1  0  0  0  0
  6  7  1  0  0  0  0
  6 40  1  0  0  0  0
  6 41  1  0  0  0  0
  7  8  1  0  0  0  0
  8  9  1  0  0  0  0
  8 38  2  0  0  0  0
  9 10  1  0  0  0  0
  9 39  1  0  0  0  0
 10 11  2  0  0  0  0
 10 12  1  0  0  0  0
 12 13  2  0  0  0  0
 13 14  1  0  0  0  0
 13 38  1  0  0  0  0
 14 15  1  0  0  0  0
 15 16  1  0  0  0  0
 15 36  1  0  0  0  0
 15 37  1  0  0  0  0
 16 17  1  0  0  0  0
 16 21  2  0  0  0  0
 17 18  2  0  0  0  0
 17 35  1  0  0  0  0
 18 19  1  0  0  0  0
 18 34  1  0  0  0  0
 19 20  2  0  0  0  0
 19 24  1  0  0  0  0
 20 21  1  0  0  0  0
 20 23  1  0  0  0  0
 21 22  1  0  0  0  0
 24 25  1  0  0  0  0
 24 29  1  0  0  0  0
 24 33  1  0  0  0  0
 25 26  1  0  0  0  0
 25 27  1  0  0  0  0
 25 28  1  0  0  0  0
 29 30  1  0  0  0  0
 29 31  1  0  0  0  0
 29 32  1  0  0  0  0
 43 44  1  0  0  0  0
 43 45  1  0  0  0  0
 43 46  1  0  0  0  0
M  END
> <Gold.Goldscore.Fitness>
67.7756

> <Gold.Goldscore.External.HBond>
1.4847

> <Gold.Protein.ActiveResidues>
 GLU87   ILE88   VAL90   ASN91   ALA92   ASP94   ASN95   ARG98   ILE118  ASN120 
 LYS123  GLY124  ILE125  ILE141  PHE142  THR147  SER148  SER149  ASN150  TYR151 
 GLY160  GLY161  ARG162  ASN163  GLY164  TYR165  GLY166  ALA167  LYS168  LEU169 
 THR181  THR215  ILE217  ILE317  GLN376  LYS378  ILE33   TYR34   MG903  

> <Gold.Goldscore.Internal.HBond>
0.0

> <Gold.Goldscore.Internal.Torsion.Weighted>
-4.6232

> <Gold.Protein.RotatedTorsions>
[ 8833 2752 2751 2750 ] final  -92.65 input   60.00 | X-H torsion
[ 6906  969  968  965 ] final -179.89 input   59.99 | X-H torsion
[ 6910  975  974  971 ] final  -12.12 input   60.00 | X-H torsion
[ 6897  962  961  958 ] final   71.11 input   60.00 | X-H torsion
[ 9084 2997 2996 2994 ] final  -38.60 input   60.00 | X-H torsion
[ 7406 1497 1496 1493 ] final  170.76 input   60.00 | X-H torsion
[ 7140 1220 1219 1216 ] final  115.27 input   60.00 | X-H torsion
[ 6926  995  994  992 ] final   25.13 input   60.0

> <Gold.Goldscore.Constraint.Score>
0.0

> <Gold.Id.Protein>
1ZXM|1ZXM_protein|mol2

> <Gold.Protein.RotatedAtoms>
   40.6750    3.3830   41.8637 H   0  0  0  0  0  0  0  0  0  0  0  0  # atno 6897 bound_to 962 
   42.5663   -2.5035   38.2571 H   0  0  0  0  0  0  0  0  0  0  0  0  # atno 6906 bound_to 969 
   38.8111   -4.3840   40.0676 H   0  0  0  0  0  0  0  0  0  0  0  0  # atno 6910 bound_to 975 
   45.8911    1.1244   38.6740 H   0  0  0  0  0  0  0  0  0  0  0  0  # atno 6926 bound_to 995 
   28.0475    0.1168   43.0607 H   0  0  0  0  0  0  0  0  0  0  0  0  # atno 7140 bound_to 1220
   28.2838   -0.9017   41.0

> <Gold.Version>
5.3.0

> <Gold.Goldscore.Internal.Correction>
-0.0166

> <Gold.Goldscore.Internal.Vdw>
-1.3472

> <Gold.Goldscore.Internal.Vdw.Weighted>
-1.3472

> <Gold.Goldscore.External.HBond.Weighted>
1.4847

> <Gold.Goldscore.External.Vdw.Weighted>
72.2447

> <Gold.Goldscore.Internal.HBond.Weighted>
0.0

> <Gold.Goldscore.Hbonds>
donor molecule, donor type, donor heavy atom, donor atom, acceptor molecule, acceptor atom, score
      L1  H     1    27       P1   757  0.74

> <Gold.Goldscore.External.Vdw>
52.5416

> <Gold.Goldscore.Internal.Torsion>
-4.6232

> <Gold.Goldscore.Internal.Correction.Weighted>
-0.0166

> <Gold.Version>
5.3.0

> <Gold.Id.Protein>
1ZXM|1ZXM_protein|mol2

> <Gold.ASP.Fitness>
27.2667

> <Gold.ASP.ASP>
29.0500

> <Gold.ASP.Map>
-145.2500

> <Gold.ASP.DEClash>
0.8781

> <Gold.ASP.DEInternal>
0.9051

> <Gold.ASP.Internal.Correction>
0.1072

> <Gold.Protein.RotatedTorsions>
[ 8924 2752 2751 2750 ] final   71.72 input   60.00 | X-H torsion
[ 6908  969  968  965 ] final   93.13 input   59.99 | X-H torsion
[ 6912  975  974  971 ] final  144.73 input   60.00 | X-H torsion
[ 6899  962  961  958 ] final -110.33 input   60.00 | X-H torsion
[ 9165 2997 2996 2994 ] final   83.83 input   60.00 | X-H torsion
[ 7410 1497 1496 1493 ] final -178.56 input   60.00 | X-H torsion
[ 7137 1220 1219 1216 ] final -132.20 input   60.00 | X-H torsion
[ 6928  995  994  992 ] final   50.64 input   60.00 | X-H torsion

> <Gold.Protein.ActiveResidues>
 GLU87   ILE88   VAL90   ASN91   ALA92   ASP94   ASN95   ARG98   ILE118  ASN120 
 LYS123  GLY124  ILE125  ILE141  PHE142  THR147  SER148  SER149  ASN150  TYR151 
 GLY160  GLY161  ARG162  ASN163  GLY164  TYR165  GLY166  ALA167  LYS168  LEU169 
 THR181  THR215  ILE217  ILE317  GLN376  LYS378  ILE33   TYR34   MG903  

> <Gold.Protein.RotatedAtoms>
   41.6041    4.8369   42.5904 H   0  0  0  0  0  0  0  0  0  0  0  0  # atno 6899 bound_to 962 
   41.3550   -2.0776   38.3665 H   0  0  0  0  0  0  0  0  0  0  0  0  # atno 6908 bound_to 969 
   37.5066   -5.5048   40.7055 H   0  0  0  0  0  0  0  0  0  0  0  0  # atno 6912 bound_to 975 
   45.5116    1.1568   38.8346 H   0  0  0  0  0  0  0  0  0  0  0  0  # atno 6928 bound_to 995 
   28.3206   -0.1235   44.5746 H   0  0  0  0  0  0  0  0  0  0  0  0  # atno 7137 bound_to 1220
   28.3677   -0.7638   41.1243 H   0  0  0  0  0  0  0  0  0  0  0  0  # atno 7410 bound_to 1497
   43.7095    0.5361   29.5921 H   0  0  0  0  0  0  0  0  0  0  0  0  # atno 8924 bound_to 2752
   43.3115   -0.1046   31.0679 H   0  0  0  0  0  0  0  0  0  0  0  0  # atno 8925 bound_to 2752
   43.9934   -1.0669   29.9033 H   0  0  0  0  0  0  0  0  0  0  0  0  # atno 8926 bound_to 2752
   34.7194   -5.1937   44.3450 H   0  0  0  0  0  0  0  0  0  0  0  0  # atno 9165 bound_to 2997
   41.5310   -3.0481   39.6608 LP  0  0  0  0  0  0  0  0  0  0  0  0  # atno 11896 bound_to 969 
   42.7703   -2.8403   38.6179 LP  0  0  0  0  0  0  0  0  0  0  0  0  # atno 11897 bound_to 969 
   38.8723   -4.9709   39.9998 LP  0  0  0  0  0  0  0  0  0  0  0  0  # atno 11898 bound_to 975 
   37.8060   -3.9070   40.6305 LP  0  0  0  0  0  0  0  0  0  0  0  0  # atno 11899 bound_to 975 
   40.3341    3.8196   42.5971 LP  0  0  0  0  0  0  0  0  0  0  0  0  # atno 11904 bound_to 962 
   41.4997    3.6675   41.4637 LP  0  0  0  0  0  0  0  0  0  0  0  0  # atno 11905 bound_to 962 
   34.1538   -3.6839   44.1247 LP  0  0  0  0  0  0  0  0  0  0  0  0  # atno 11912 bound_to 2997
   33.9100   -4.4509   45.5455 LP  0  0  0  0  0  0  0  0  0  0  0  0  # atno 11913 bound_to 2997
   26.8074   -1.1377   41.3957 LP  0  0  0  0  0  0  0  0  0  0  0  0  # atno 11922 bound_to 1497
   27.4631    0.1908   42.0826 LP  0  0  0  0  0  0  0  0  0  0  0  0  # atno 11923 bound_to 1497
   27.9348    0.1186   43.0124 LP  0  0  0  0  0  0  0  0  0  0  0  0  # atno 11930 bound_to 1220
   26.7577   -0.1053   44.1219 LP  0  0  0  0  0  0  0  0  0  0  0  0  # atno 11931 bound_to 1220

$$$$
****|SGG-4|sdf|1|dock36
  -GOLD-   9 72311463D 1   1.00000     0.00000

 46 48  0  0  0  0  0  0  0  0  1 V2000
   35.7006   -8.1159   40.2571 S   0  0  0  0  0  0  0  0  0  0  0  0
   35.8047   -9.8167   40.0385 C   0  0  0  0  0  0  0  0  0  0  0  0
   36.0357  -10.2164   38.8069 N   0  0  0  0  0  0  0  0  0  0  0  0
   36.1386   -9.1193   37.9754 C   0  0  0  0  0  0  0  0  0  0  0  0
   35.9872   -7.8858   38.5800 C   0  0  0  0  0  0  0  0  0  0  0  0
   36.0057   -6.5167   37.9807 C   0  0  0  0  0  0  0  0  0  0  0  0
   35.0509   -5.3427   38.9957 S   0  0  0  0  0  0  0  0  0  0  0  0
   36.0138   -3.8970   38.7248 C   0  0  0  0  0  0  0  0  0  0  0  0
   36.4793   -3.6294   37.4464 N   0  0  0  0  0  0  0  0  0  0  0  0
   37.2526   -2.4991   37.2123 C   0  0  0  0  0  0  0  0  0  0  0  0
   37.7163   -2.2155   35.9257 O   0  0  0  0  0  0  0  0  0  0  0  0
   37.5577   -1.6888   38.2305 N   0  0  0  0  0  0  0  0  0  0  0  0
   37.0784   -2.0194   39.4357 C   0  0  0  0  0  0  0  0  0  0  0  0
   37.5463   -0.9711   40.7867 S   0  0  0  0  0  0  0  0  0  0  0  0
   36.8500    0.5590   40.1123 C   0  0  0  0  0  0  0  0  0  0  0  0
   35.4197    0.3900   39.6670 C   0  0  0  0  0  0  0  0  0  0  0  0
   34.5468   -0.4581   40.3587 C   0  0  0  0  0  0  0  0  0  0  0  0
   33.2130   -0.5870   39.9586 C   0  0  0  0  0  0  0  0  0  0  0  0
   32.7251    0.1157   38.8479 C   0  0  0  0  0  0  0  0  0  0  0  0
   33.6059    0.9552   38.1510 C   0  0  0  0  0  0  0  0  0  0  0  0
   34.9372    1.0889   38.5530 C   0  0  0  0  0  0  0  0  0  0  0  0
   35.5967    1.7471   37.9907 H   0  0  0  0  0  0  0  0  0  0  0  0
   33.2604    1.5192   37.2871 H   0  0  0  0  0  0  0  0  0  0  0  0
   31.2749    0.0249   38.4055 C   0  0  0  0  0  0  0  0  0  0  0  0
   30.8848   -1.4322   38.1485 C   0  0  0  0  0  0  0  0  0  0  0  0
   31.4644   -1.8678   37.3271 H   0  0  0  0  0  0  0  0  0  0  0  0
   31.0561   -2.0470   39.0394 H   0  0  0  0  0  0  0  0  0  0  0  0
   29.8234   -1.5087   37.8895 H   0  0  0  0  0  0  0  0  0  0  0  0
   30.9617    0.8936   37.1842 C   0  0  0  0  0  0  0  0  0  0  0  0
   31.4111    0.4958   36.2680 H   0  0  0  0  0  0  0  0  0  0  0  0
   31.3292    1.9159   37.3249 H   0  0  0  0  0  0  0  0  0  0  0  0
   29.8796    0.9456   37.0209 H   0  0  0  0  0  0  0  0  0  0  0  0
   30.6427    0.3986   39.2223 H   0  0  0  0  0  0  0  0  0  0  0  0
   32.5592   -1.2390   40.5327 H   0  0  0  0  0  0  0  0  0  0  0  0
   34.8957   -1.0208   41.2218 H   0  0  0  0  0  0  0  0  0  0  0  0
   37.4453    0.8999   39.2563 H   0  0  0  0  0  0  0  0  0  0  0  0
   36.9150    1.3471   40.8718 H   0  0  0  0  0  0  0  0  0  0  0  0
   36.3210   -3.0819   39.7338 N   0  0  0  0  0  0  0  0  0  0  0  0
   36.2509   -4.2612   36.6917 H   0  0  0  0  0  0  0  0  0  0  0  0
   37.0445   -6.1716   37.9177 H   0  0  0  0  0  0  0  0  0  0  0  0
   35.5931   -6.5287   36.9661 H   0  0  0  0  0  0  0  0  0  0  0  0
   36.3275   -9.2797   36.9204 H   0  0  0  0  0  0  0  0  0  0  0  0
   35.6198  -10.7316   41.1971 C   0  0  0  0  0  0  0  0  0  0  0  0
   36.3243  -10.4810   41.9969 H   0  0  0  0  0  0  0  0  0  0  0  0
   35.8029  -11.7675   40.8947 H   0  0  0  0  0  0  0  0  0  0  0  0
   34.6074  -10.6594   41.6071 H   0  0  0  0  0  0  0  0  0  0  0  0
  1  2  1  0  0  0  0
  1  5  1  0  0  0  0
  2  3  2  0  0  0  0
  2 43  1  0  0  0  0
  3  4  1  0  0  0  0
  4  5  2  0  0  0  0
  4 42  1  0  0  0  0
  5  6  1  0  0  0  0
  6  7  1  0  0  0  0
  6 40  1  0  0  0  0
  6 41  1  0  0  0  0
  7  8  1  0  0  0  0
  8  9  1  0  0  0  0
  8 38  2  0  0  0  0
  9 10  1  0  0  0  0
  9 39  1  0  0  0  0
 10 11  2  0  0  0  0
 10 12  1  0  0  0  0
 12 13  2  0  0  0  0
 13 14  1  0  0  0  0
 13 38  1  0  0  0  0
 14 15  1  0  0  0  0
 15 16  1  0  0  0  0
 15 36  1  0  0  0  0
 15 37  1  0  0  0  0
 16 17  1  0  0  0  0
 16 21  2  0  0  0  0
 17 18  2  0  0  0  0
 17 35  1  0  0  0  0
 18 19  1  0  0  0  0
 18 34  1  0  0  0  0
 19 20  2  0  0  0  0
 19 24  1  0  0  0  0
 20 21  1  0  0  0  0
 20 23  1  0  0  0  0
 21 22  1  0  0  0  0
 24 25  1  0  0  0  0
 24 29  1  0  0  0  0
 24 33  1  0  0  0  0
 25 26  1  0  0  0  0
 25 27  1  0  0  0  0
 25 28  1  0  0  0  0
 29 30  1  0  0  0  0
 29 31  1  0  0  0  0
 29 32  1  0  0  0  0
 43 44  1  0  0  0  0
 43 45  1  0  0  0  0
 43 46  1  0  0  0  0
M  END
> <Gold.Goldscore.Fitness>
67.7756

> <Gold.Goldscore.External.HBond>
1.4847

> <Gold.Protein.ActiveResidues>
 GLU87   ILE88   VAL90   ASN91   ALA92   ASP94   ASN95   ARG98   ILE118  ASN120 
 LYS123  GLY124  ILE125  ILE141  PHE142  THR147  SER148  SER149  ASN150  TYR151 
 GLY160  GLY161  ARG162  ASN163  GLY164  TYR165  GLY166  ALA167  LYS168  LEU169 
 THR181  THR215  ILE217  ILE317  GLN376  LYS378  ILE33   TYR34   MG903  

> <Gold.Goldscore.Internal.HBond>
0.0

> <Gold.Goldscore.Internal.Torsion.Weighted>
-4.6232

> <Gold.Protein.RotatedTorsions>
[ 8833 2752 2751 2750 ] final  -92.65 input   60.00 | X-H torsion
[ 6906  969  968  965 ] final -179.89 input   59.99 | X-H torsion
[ 6910  975  974  971 ] final  -12.12 input   60.00 | X-H torsion
[ 6897  962  961  958 ] final   71.11 input   60.00 | X-H torsion
[ 9084 2997 2996 2994 ] final  -38.60 input   60.00 | X-H torsion
[ 7406 1497 1496 1493 ] final  170.76 input   60.00 | X-H torsion
[ 7140 1220 1219 1216 ] final  115.27 input   60.00 | X-H torsion
[ 6926  995  994  992 ] final   25.13 input   60.0

> <Gold.Goldscore.Constraint.Score>
0.0

> <Gold.Id.Protein>
1ZXM|1ZXM_protein|mol2

> <Gold.Protein.RotatedAtoms>
   40.6750    3.3830   41.8637 H   0  0  0  0  0  0  0  0  0  0  0  0  # atno 6897 bound_to 962 
   42.5663   -2.5035   38.2571 H   0  0  0  0  0  0  0  0  0  0  0  0  # atno 6906 bound_to 969 
   38.8111   -4.3840   40.0676 H   0  0  0  0  0  0  0  0  0  0  0  0  # atno 6910 bound_to 975 
   45.8911    1.1244   38.6740 H   0  0  0  0  0  0  0  0  0  0  0  0  # atno 6926 bound_to 995 
   28.0475    0.1168   43.0607 H   0  0  0  0  0  0  0  0  0  0  0  0  # atno 7140 bound_to 1220
   28.2838   -0.9017   41.0

> <Gold.Version>
5.3.0

> <Gold.Goldscore.Internal.Correction>
-0.0166

> <Gold.Goldscore.Internal.Vdw>
-1.3472

> <Gold.Goldscore.Internal.Vdw.Weighted>
-1.3472

> <Gold.Goldscore.External.HBond.Weighted>
1.4847

> <Gold.Goldscore.External.Vdw.Weighted>
72.2447

> <Gold.Goldscore.Internal.HBond.Weighted>
0.0

> <Gold.Goldscore.Hbonds>
donor molecule, donor type, donor heavy atom, donor atom, acceptor molecule, acceptor atom, score
      L1  H     1    27       P1   757  0.74

> <Gold.Goldscore.External.Vdw>
52.5416

> <Gold.Goldscore.Internal.Torsion>
-4.6232

> <Gold.Goldscore.Internal.Correction.Weighted>
-0.0166

> <Gold.Version>
5.3.0

> <Gold.Id.Protein>
1ZXM|1ZXM_protein|mol2

> <Gold.ASP.Fitness>
27.2496

> <Gold.ASP.ASP>
28.9880

> <Gold.ASP.Map>
-144.9400

> <Gold.ASP.DEClash>
0.6449

> <Gold.ASP.DEInternal>
1.0935

> <Gold.ASP.Internal.Correction>
0.1091

> <Gold.Protein.RotatedTorsions>
[ 8924 2752 2751 2750 ] final  -81.98 input   60.00 | X-H torsion
[ 6908  969  968  965 ] final -150.61 input   59.99 | X-H torsion
[ 6912  975  974  971 ] final -142.52 input   60.00 | X-H torsion
[ 6899  962  961  958 ] final -121.58 input   60.00 | X-H torsion
[ 9165 2997 2996 2994 ] final -159.92 input   60.00 | X-H torsion
[ 7410 1497 1496 1493 ] final  -99.01 input   60.00 | X-H torsion
[ 7137 1220 1219 1216 ] final  179.85 input   60.00 | X-H torsion
[ 6928  995  994  992 ] final  -42.38 input   60.00 | X-H torsion

> <Gold.Protein.ActiveResidues>
 GLU87   ILE88   VAL90   ASN91   ALA92   ASP94   ASN95   ARG98   ILE118  ASN120 
 LYS123  GLY124  ILE125  ILE141  PHE142  THR147  SER148  SER149  ASN150  TYR151 
 GLY160  GLY161  ARG162  ASN163  GLY164  TYR165  GLY166  ALA167  LYS168  LEU169 
 THR181  THR215  ILE217  ILE317  GLN376  LYS378  ILE33   TYR34   MG903  

> <Gold.Protein.RotatedAtoms>
   41.4648    4.8399   42.7101 H   0  0  0  0  0  0  0  0  0  0  0  0  # atno 6899 bound_to 962 
   42.7563   -2.8004   38.5729 H   0  0  0  0  0  0  0  0  0  0  0  0  # atno 6908 bound_to 969 
   37.3128   -4.4236   40.8691 H   0  0  0  0  0  0  0  0  0  0  0  0  # atno 6912 bound_to 975 
   46.8469    1.2565   39.0631 H   0  0  0  0  0  0  0  0  0  0  0  0  # atno 6928 bound_to 995 
   28.6076    0.0009   43.8812 H   0  0  0  0  0  0  0  0  0  0  0  0  # atno 7137 bound_to 1220
   28.0661    0.1439   41.8453 H   0  0  0  0  0  0  0  0  0  0  0  0  # atno 7410 bound_to 1497
   43.8118   -1.1285   30.4239 H   0  0  0  0  0  0  0  0  0  0  0  0  # atno 8924 bound_to 2752
   43.9215    0.1022   29.3191 H   0  0  0  0  0  0  0  0  0  0  0  0  # atno 8925 bound_to 2752
   43.2811    0.3908   30.8204 H   0  0  0  0  0  0  0  0  0  0  0  0  # atno 8926 bound_to 2752
   33.9364   -4.5068   45.5465 H   0  0  0  0  0  0  0  0  0  0  0  0  # atno 9165 bound_to 2997
   41.3050   -2.0844   38.4020 LP  0  0  0  0  0  0  0  0  0  0  0  0  # atno 11896 bound_to 969 
   41.5852   -3.0761   39.6688 LP  0  0  0  0  0  0  0  0  0  0  0  0  # atno 11897 bound_to 969 
   38.1329   -5.7315   40.3544 LP  0  0  0  0  0  0  0  0  0  0  0  0  # atno 11898 bound_to 975 
   38.7404   -4.2353   40.1112 LP  0  0  0  0  0  0  0  0  0  0  0  0  # atno 11899 bound_to 975 
   40.3377    3.6926   42.4627 LP  0  0  0  0  0  0  0  0  0  0  0  0  # atno 11904 bound_to 962 
   41.6363    3.7914   41.4776 LP  0  0  0  0  0  0  0  0  0  0  0  0  # atno 11905 bound_to 962 
   34.7288   -5.1693   44.2890 LP  0  0  0  0  0  0  0  0  0  0  0  0  # atno 11912 bound_to 2997
   34.1234   -3.6572   44.1712 LP  0  0  0  0  0  0  0  0  0  0  0  0  # atno 11913 bound_to 2997
   27.9310   -1.2174   40.9641 LP  0  0  0  0  0  0  0  0  0  0  0  0  # atno 11922 bound_to 1497
   26.6433   -0.6436   41.7881 LP  0  0  0  0  0  0  0  0  0  0  0  0  # atno 11923 bound_to 1497
   27.1762    0.0760   43.1110 LP  0  0  0  0  0  0  0  0  0  0  0  0  # atno 11930 bound_to 1220
   27.2272   -0.1879   44.7217 LP  0  0  0  0  0  0  0  0  0  0  0  0  # atno 11931 bound_to 1220

$$$$
****|SGG-4|sdf|1|dock58
  -GOLD-   9 72311483D 1   1.00000     0.00000

 46 48  0  0  0  0  0  0  0  0  1 V2000
   38.7691    1.5267   37.0437 S   0  0  0  0  0  0  0  0  0  0  0  0
   39.9803    0.4828   36.4154 C   0  0  0  0  0  0  0  0  0  0  0  0
   40.3679   -0.4835   37.2192 N   0  0  0  0  0  0  0  0  0  0  0  0
   39.6716   -0.4041   38.4085 C   0  0  0  0  0  0  0  0  0  0  0  0
   38.7529    0.6239   38.5041 C   0  0  0  0  0  0  0  0  0  0  0  0
   37.8675    1.0144   39.6432 C   0  0  0  0  0  0  0  0  0  0  0  0
   37.9338   -0.2219   40.9801 S   0  0  0  0  0  0  0  0  0  0  0  0
   36.7901   -1.3897   40.3331 C   0  0  0  0  0  0  0  0  0  0  0  0
   37.0368   -1.9550   39.0912 N   0  0  0  0  0  0  0  0  0  0  0  0
   36.1397   -2.8706   38.5553 C   0  0  0  0  0  0  0  0  0  0  0  0
   36.3857   -3.4537   37.3102 O   0  0  0  0  0  0  0  0  0  0  0  0
   35.0331   -3.1829   39.2369 N   0  0  0  0  0  0  0  0  0  0  0  0
   34.8619   -2.5889   40.4241 C   0  0  0  0  0  0  0  0  0  0  0  0
   33.3582   -2.9635   41.2853 S   0  0  0  0  0  0  0  0  0  0  0  0
   32.3372   -3.2296   39.8130 C   0  0  0  0  0  0  0  0  0  0  0  0
   31.8887   -1.9345   39.1851 C   0  0  0  0  0  0  0  0  0  0  0  0
   32.3318   -0.7032   39.6822 C   0  0  0  0  0  0  0  0  0  0  0  0
   31.9360    0.4935   39.0762 C   0  0  0  0  0  0  0  0  0  0  0  0
   31.0750    0.4879   37.9698 C   0  0  0  0  0  0  0  0  0  0  0  0
   30.6244   -0.7473   37.4824 C   0  0  0  0  0  0  0  0  0  0  0  0
   31.0233   -1.9436   38.0836 C   0  0  0  0  0  0  0  0  0  0  0  0
   30.6554   -2.8862   37.6830 H   0  0  0  0  0  0  0  0  0  0  0  0
   29.9590   -0.7896   36.6226 H   0  0  0  0  0  0  0  0  0  0  0  0
   30.6515    1.7660   37.2671 C   0  0  0  0  0  0  0  0  0  0  0  0
   29.5908    1.4661   36.2057 C   0  0  0  0  0  0  0  0  0  0  0  0
   29.9822    0.8179   35.4138 H   0  0  0  0  0  0  0  0  0  0  0  0
   28.7237    0.9635   36.6490 H   0  0  0  0  0  0  0  0  0  0  0  0
   29.2373    2.3919   35.7395 H   0  0  0  0  0  0  0  0  0  0  0  0
   31.8259    2.5363   36.6574 C   0  0  0  0  0  0  0  0  0  0  0  0
   32.2430    2.0283   35.7813 H   0  0  0  0  0  0  0  0  0  0  0  0
   32.6315    2.6667   37.3881 H   0  0  0  0  0  0  0  0  0  0  0  0
   31.5020    3.5316   36.3339 H   0  0  0  0  0  0  0  0  0  0  0  0
   30.1964    2.4329   38.0119 H   0  0  0  0  0  0  0  0  0  0  0  0
   32.3170    1.4295   39.4771 H   0  0  0  0  0  0  0  0  0  0  0  0
   32.9968   -0.6646   40.5422 H   0  0  0  0  0  0  0  0  0  0  0  0
   31.4492   -3.8198   40.0706 H   0  0  0  0  0  0  0  0  0  0  0  0
   32.9055   -3.8213   39.0854 H   0  0  0  0  0  0  0  0  0  0  0  0
   35.6851   -1.7090   41.0068 N   0  0  0  0  0  0  0  0  0  0  0  0
   37.8712   -1.6958   38.5839 H   0  0  0  0  0  0  0  0  0  0  0  0
   38.2009    1.9825   40.0353 H   0  0  0  0  0  0  0  0  0  0  0  0
   36.8296    1.1254   39.3111 H   0  0  0  0  0  0  0  0  0  0  0  0
   39.8774   -1.1331   39.1836 H   0  0  0  0  0  0  0  0  0  0  0  0
   40.5320    0.7133   35.0530 C   0  0  0  0  0  0  0  0  0  0  0  0
   39.7254    0.7286   34.3128 H   0  0  0  0  0  0  0  0  0  0  0  0
   41.2253   -0.0899   34.7842 H   0  0  0  0  0  0  0  0  0  0  0  0
   41.0617    1.6693   34.9918 H   0  0  0  0  0  0  0  0  0  0  0  0
  1  2  1  0  0  0  0
  1  5  1  0  0  0  0
  2  3  2  0  0  0  0
  2 43  1  0  0  0  0
  3  4  1  0  0  0  0
  4  5  2  0  0  0  0
  4 42  1  0  0  0  0
  5  6  1  0  0  0  0
  6  7  1  0  0  0  0
  6 40  1  0  0  0  0
  6 41  1  0  0  0  0
  7  8  1  0  0  0  0
  8  9  1  0  0  0  0
  8 38  2  0  0  0  0
  9 10  1  0  0  0  0
  9 39  1  0  0  0  0
 10 11  2  0  0  0  0
 10 12  1  0  0  0  0
 12 13  2  0  0  0  0
 13 14  1  0  0  0  0
 13 38  1  0  0  0  0
 14 15  1  0  0  0  0
 15 16  1  0  0  0  0
 15 36  1  0  0  0  0
 15 37  1  0  0  0  0
 16 17  1  0  0  0  0
 16 21  2  0  0  0  0
 17 18  2  0  0  0  0
 17 35  1  0  0  0  0
 18 19  1  0  0  0  0
 18 34  1  0  0  0  0
 19 20  2  0  0  0  0
 19 24  1  0  0  0  0
 20 21  1  0  0  0  0
 20 23  1  0  0  0  0
 21 22  1  0  0  0  0
 24 25  1  0  0  0  0
 24 29  1  0  0  0  0
 24 33  1  0  0  0  0
 25 26  1  0  0  0  0
 25 27  1  0  0  0  0
 25 28  1  0  0  0  0
 29 30  1  0  0  0  0
 29 31  1  0  0  0  0
 29 32  1  0  0  0  0
 43 44  1  0  0  0  0
 43 45  1  0  0  0  0
 43 46  1  0  0  0  0
M  END
> <Gold.Goldscore.Fitness>
67.7756

> <Gold.Goldscore.External.HBond>
1.4847

> <Gold.Protein.ActiveResidues>
 GLU87   ILE88   VAL90   ASN91   ALA92   ASP94   ASN95   ARG98   ILE118  ASN120 
 LYS123  GLY124  ILE125  ILE141  PHE142  THR147  SER148  SER149  ASN150  TYR151 
 GLY160  GLY161  ARG162  ASN163  GLY164  TYR165  GLY166  ALA167  LYS168  LEU169 
 THR181  THR215  ILE217  ILE317  GLN376  LYS378  ILE33   TYR34   MG903  

> <Gold.Goldscore.Internal.HBond>
0.0

> <Gold.Goldscore.Internal.Torsion.Weighted>
-4.6232

> <Gold.Protein.RotatedTorsions>
[ 8833 2752 2751 2750 ] final  -92.65 input   60.00 | X-H torsion
[ 6906  969  968  965 ] final -179.89 input   59.99 | X-H torsion
[ 6910  975  974  971 ] final  -12.12 input   60.00 | X-H torsion
[ 6897  962  961  958 ] final   71.11 input   60.00 | X-H torsion
[ 9084 2997 2996 2994 ] final  -38.60 input   60.00 | X-H torsion
[ 7406 1497 1496 1493 ] final  170.76 input   60.00 | X-H torsion
[ 7140 1220 1219 1216 ] final  115.27 input   60.00 | X-H torsion
[ 6926  995  994  992 ] final   25.13 input   60.0

> <Gold.Goldscore.Constraint.Score>
0.0

> <Gold.Id.Protein>
1ZXM|1ZXM_protein|mol2

> <Gold.Protein.RotatedAtoms>
   40.6750    3.3830   41.8637 H   0  0  0  0  0  0  0  0  0  0  0  0  # atno 6897 bound_to 962 
   42.5663   -2.5035   38.2571 H   0  0  0  0  0  0  0  0  0  0  0  0  # atno 6906 bound_to 969 
   38.8111   -4.3840   40.0676 H   0  0  0  0  0  0  0  0  0  0  0  0  # atno 6910 bound_to 975 
   45.8911    1.1244   38.6740 H   0  0  0  0  0  0  0  0  0  0  0  0  # atno 6926 bound_to 995 
   28.0475    0.1168   43.0607 H   0  0  0  0  0  0  0  0  0  0  0  0  # atno 7140 bound_to 1220
   28.2838   -0.9017   41.0

> <Gold.Version>
5.3.0

> <Gold.Goldscore.Internal.Correction>
-0.0166

> <Gold.Goldscore.Internal.Vdw>
-1.3472

> <Gold.Goldscore.Internal.Vdw.Weighted>
-1.3472

> <Gold.Goldscore.External.HBond.Weighted>
1.4847

> <Gold.Goldscore.External.Vdw.Weighted>
72.2447

> <Gold.Goldscore.Internal.HBond.Weighted>
0.0

> <Gold.Goldscore.Hbonds>
donor molecule, donor type, donor heavy atom, donor atom, acceptor molecule, acceptor atom, score
      L1  H     1    27       P1   757  0.74

> <Gold.Goldscore.External.Vdw>
52.5416

> <Gold.Goldscore.Internal.Torsion>
-4.6232

> <Gold.Goldscore.Internal.Correction.Weighted>
-0.0166

> <Gold.Version>
5.3.0

> <Gold.Id.Protein>
1ZXM|1ZXM_protein|mol2

> <Gold.ASP.Fitness>
27.2057

> <Gold.ASP.ASP>
29.5540

> <Gold.ASP.Map>
-147.7700

> <Gold.ASP.DEClash>
1.7611

> <Gold.ASP.DEInternal>
0.5872

> <Gold.ASP.Internal.Correction>
0.1091

> <Gold.Protein.RotatedTorsions>
[ 8924 2752 2751 2750 ] final  -95.89 input   60.00 | X-H torsion
[ 6908  969  968  965 ] final  -39.85 input   59.99 | X-H torsion
[ 6912  975  974  971 ] final -118.24 input   60.00 | X-H torsion
[ 6899  962  961  958 ] final  -47.70 input   60.00 | X-H torsion
[ 9165 2997 2996 2994 ] final   73.27 input   60.00 | X-H torsion
[ 7410 1497 1496 1493 ] final  101.26 input   60.00 | X-H torsion
[ 7137 1220 1219 1216 ] final  112.51 input   60.00 | X-H torsion
[ 6928  995  994  992 ] final  -42.78 input   60.00 | X-H torsion

> <Gold.Protein.ActiveResidues>
 GLU87   ILE88   VAL90   ASN91   ALA92   ASP94   ASN95   ARG98   ILE118  ASN120 
 LYS123  GLY124  ILE125  ILE141  PHE142  THR147  SER148  SER149  ASN150  TYR151 
 GLY160  GLY161  ARG162  ASN163  GLY164  TYR165  GLY166  ALA167  LYS168  LEU169 
 THR181  THR215  ILE217  ILE317  GLN376  LYS378  ILE33   TYR34   MG903  

> <Gold.Protein.RotatedAtoms>
   41.9511    4.3662   41.8127 H   0  0  0  0  0  0  0  0  0  0  0  0  # atno 6899 bound_to 962 
   41.7261   -3.1321   39.6698 H   0  0  0  0  0  0  0  0  0  0  0  0  # atno 6908 bound_to 969 
   37.5222   -4.1039   40.7745 H   0  0  0  0  0  0  0  0  0  0  0  0  # atno 6912 bound_to 975 
   46.8504    1.2580   39.0684 H   0  0  0  0  0  0  0  0  0  0  0  0  # atno 6928 bound_to 995 
   28.0058    0.1182   43.0437 H   0  0  0  0  0  0  0  0  0  0  0  0  # atno 7137 bound_to 1220
   27.3170   -1.3534   41.0745 H   0  0  0  0  0  0  0  0  0  0  0  0  # atno 7410 bound_to 1497
   43.7188   -1.0615   30.6254 H   0  0  0  0  0  0  0  0  0  0  0  0  # atno 8924 bound_to 2752
   43.9878   -0.1179   29.2895 H   0  0  0  0  0  0  0  0  0  0  0  0  # atno 8925 bound_to 2752
   43.3078    0.5440   30.6485 H   0  0  0  0  0  0  0  0  0  0  0  0  # atno 8926 bound_to 2752
   34.7373   -5.1004   44.2013 H   0  0  0  0  0  0  0  0  0  0  0  0  # atno 9165 bound_to 2997
   42.7242   -2.7093   38.4560 LP  0  0  0  0  0  0  0  0  0  0  0  0  # atno 11896 bound_to 969 
   41.2034   -2.1171   38.5101 LP  0  0  0  0  0  0  0  0  0  0  0  0  # atno 11897 bound_to 969 
   37.7860   -5.6928   40.5426 LP  0  0  0  0  0  0  0  0  0  0  0  0  # atno 11898 bound_to 975 
   38.8764   -4.5961   40.0183 LP  0  0  0  0  0  0  0  0  0  0  0  0  # atno 11899 bound_to 975 
   40.8275    4.5795   42.9704 LP  0  0  0  0  0  0  0  0  0  0  0  0  # atno 11904 bound_to 962 
   40.6569    3.3816   41.8737 LP  0  0  0  0  0  0  0  0  0  0  0  0  # atno 11905 bound_to 962 
   34.0699   -3.6175   44.2613 LP  0  0  0  0  0  0  0  0  0  0  0  0  # atno 11912 bound_to 2997
   33.9759   -4.6112   45.5537 LP  0  0  0  0  0  0  0  0  0  0  0  0  # atno 11913 bound_to 2997
   26.9037   -0.1231   42.0561 LP  0  0  0  0  0  0  0  0  0  0  0  0  # atno 11922 bound_to 1497
   28.4251   -0.2300   41.4724 LP  0  0  0  0  0  0  0  0  0  0  0  0  # atno 11923 bound_to 1497
   26.7423   -0.0935   44.0470 LP  0  0  0  0  0  0  0  0  0  0  0  0  # atno 11930 bound_to 1220
   28.2673   -0.1366   44.6294 LP  0  0  0  0  0  0  0  0  0  0  0  0  # atno 11931 bound_to 1220

$$$$
****|SGG-4|sdf|1|dock30
  -GOLD-   9 72311463D 1   1.00000     0.00000

 46 48  0  0  0  0  0  0  0  0  1 V2000
   32.3328    0.7581   37.9992 S   0  0  0  0  0  0  0  0  0  0  0  0
   30.7157    0.7490   37.4192 C   0  0  0  0  0  0  0  0  0  0  0  0
   29.9261   -0.1550   37.9571 N   0  0  0  0  0  0  0  0  0  0  0  0
   30.6318   -0.8924   38.8867 C   0  0  0  0  0  0  0  0  0  0  0  0
   31.9586   -0.5438   39.0541 C   0  0  0  0  0  0  0  0  0  0  0  0
   33.0029   -1.1460   39.9377 C   0  0  0  0  0  0  0  0  0  0  0  0
   32.3180   -2.5166   40.9239 S   0  0  0  0  0  0  0  0  0  0  0  0
   33.6224   -3.6782   40.7253 C   0  0  0  0  0  0  0  0  0  0  0  0
   34.1784   -4.2637   41.8526 N   0  0  0  0  0  0  0  0  0  0  0  0
   35.2188   -5.1749   41.7194 C   0  0  0  0  0  0  0  0  0  0  0  0
   35.7772   -5.7782   42.8485 O   0  0  0  0  0  0  0  0  0  0  0  0
   35.6881   -5.4635   40.5016 N   0  0  0  0  0  0  0  0  0  0  0  0
   35.1051   -4.8510   39.4641 C   0  0  0  0  0  0  0  0  0  0  0  0
   35.7821   -5.1942   37.8619 S   0  0  0  0  0  0  0  0  0  0  0  0
   35.2542   -3.6487   37.0787 C   0  0  0  0  0  0  0  0  0  0  0  0
   36.1031   -2.4752   37.4971 C   0  0  0  0  0  0  0  0  0  0  0  0
   37.4893   -2.4849   37.3021 C   0  0  0  0  0  0  0  0  0  0  0  0
   38.2672   -1.3807   37.6648 C   0  0  0  0  0  0  0  0  0  0  0  0
   37.6799   -0.2482   38.2462 C   0  0  0  0  0  0  0  0  0  0  0  0
   36.2926   -0.2475   38.4503 C   0  0  0  0  0  0  0  0  0  0  0  0
   35.5138   -1.3478   38.0835 C   0  0  0  0  0  0  0  0  0  0  0  0
   34.4398   -1.3176   38.2561 H   0  0  0  0  0  0  0  0  0  0  0  0
   35.8026    0.6163   38.8948 H   0  0  0  0  0  0  0  0  0  0  0  0
   38.4893    0.9809   38.6217 C   0  0  0  0  0  0  0  0  0  0  0  0
   37.5816    2.0545   39.2257 C   0  0  0  0  0  0  0  0  0  0  0  0
   36.8376    2.4089   38.5037 H   0  0  0  0  0  0  0  0  0  0  0  0
   37.0415    1.6667   40.0968 H   0  0  0  0  0  0  0  0  0  0  0  0
   38.1695    2.9179   39.5550 H   0  0  0  0  0  0  0  0  0  0  0  0
   39.2986    1.5499   37.4531 C   0  0  0  0  0  0  0  0  0  0  0  0
   38.6604    2.0284   36.7027 H   0  0  0  0  0  0  0  0  0  0  0  0
   39.8750    0.7629   36.9548 H   0  0  0  0  0  0  0  0  0  0  0  0
   40.0047    2.3071   37.8115 H   0  0  0  0  0  0  0  0  0  0  0  0
   39.2175    0.6907   39.3912 H   0  0  0  0  0  0  0  0  0  0  0  0
   39.3378   -1.4161   37.4790 H   0  0  0  0  0  0  0  0  0  0  0  0
   37.9760   -3.3504   36.8577 H   0  0  0  0  0  0  0  0  0  0  0  0
   34.2092   -3.4335   37.3337 H   0  0  0  0  0  0  0  0  0  0  0  0
   35.2918   -3.7683   35.9894 H   0  0  0  0  0  0  0  0  0  0  0  0
   34.0953   -3.9740   39.5146 N   0  0  0  0  0  0  0  0  0  0  0  0
   33.8204   -4.0223   42.7660 H   0  0  0  0  0  0  0  0  0  0  0  0
   33.8183   -1.5286   39.3124 H   0  0  0  0  0  0  0  0  0  0  0  0
   33.4227   -0.3943   40.6149 H   0  0  0  0  0  0  0  0  0  0  0  0
   30.1210   -1.6847   39.4213 H   0  0  0  0  0  0  0  0  0  0  0  0
   30.2948    1.7102   36.3645 C   0  0  0  0  0  0  0  0  0  0  0  0
   30.5019    2.7377   36.6807 H   0  0  0  0  0  0  0  0  0  0  0  0
   29.2198    1.6216   36.1785 H   0  0  0  0  0  0  0  0  0  0  0  0
   30.8291    1.5340   35.4255 H   0  0  0  0  0  0  0  0  0  0  0  0
  1  2  1  0  0  0  0
  1  5  1  0  0  0  0
  2  3  2  0  0  0  0
  2 43  1  0  0  0  0
  3  4  1  0  0  0  0
  4  5  2  0  0  0  0
  4 42  1  0  0  0  0
  5  6  1  0  0  0  0
  6  7  1  0  0  0  0
  6 40  1  0  0  0  0
  6 41  1  0  0  0  0
  7  8  1  0  0  0  0
  8  9  1  0  0  0  0
  8 38  2  0  0  0  0
  9 10  1  0  0  0  0
  9 39  1  0  0  0  0
 10 11  2  0  0  0  0
 10 12  1  0  0  0  0
 12 13  2  0  0  0  0
 13 14  1  0  0  0  0
 13 38  1  0  0  0  0
 14 15  1  0  0  0  0
 15 16  1  0  0  0  0
 15 36  1  0  0  0  0
 15 37  1  0  0  0  0
 16 17  1  0  0  0  0
 16 21  2  0  0  0  0
 17 18  2  0  0  0  0
 17 35  1  0  0  0  0
 18 19  1  0  0  0  0
 18 34  1  0  0  0  0
 19 20  2  0  0  0  0
 19 24  1  0  0  0  0
 20 21  1  0  0  0  0
 20 23  1  0  0  0  0
 21 22  1  0  0  0  0
 24 25  1  0  0  0  0
 24 29  1  0  0  0  0
 24 33  1  0  0  0  0
 25 26  1  0  0  0  0
 25 27  1  0  0  0  0
 25 28  1  0  0  0  0
 29 30  1  0  0  0  0
 29 31  1  0  0  0  0
 29 32  1  0  0  0  0
 43 44  1  0  0  0  0
 43 45  1  0  0  0  0
 43 46  1  0  0  0  0
M  END
> <Gold.Goldscore.Fitness>
67.7756

> <Gold.Goldscore.External.HBond>
1.4847

> <Gold.Protein.ActiveResidues>
 GLU87   ILE88   VAL90   ASN91   ALA92   ASP94   ASN95   ARG98   ILE118  ASN120 
 LYS123  GLY124  ILE125  ILE141  PHE142  THR147  SER148  SER149  ASN150  TYR151 
 GLY160  GLY161  ARG162  ASN163  GLY164  TYR165  GLY166  ALA167  LYS168  LEU169 
 THR181  THR215  ILE217  ILE317  GLN376  LYS378  ILE33   TYR34   MG903  

> <Gold.Goldscore.Internal.HBond>
0.0

> <Gold.Goldscore.Internal.Torsion.Weighted>
-4.6232

> <Gold.Protein.RotatedTorsions>
[ 8833 2752 2751 2750 ] final  -92.65 input   60.00 | X-H torsion
[ 6906  969  968  965 ] final -179.89 input   59.99 | X-H torsion
[ 6910  975  974  971 ] final  -12.12 input   60.00 | X-H torsion
[ 6897  962  961  958 ] final   71.11 input   60.00 | X-H torsion
[ 9084 2997 2996 2994 ] final  -38.60 input   60.00 | X-H torsion
[ 7406 1497 1496 1493 ] final  170.76 input   60.00 | X-H torsion
[ 7140 1220 1219 1216 ] final  115.27 input   60.00 | X-H torsion
[ 6926  995  994  992 ] final   25.13 input   60.0

> <Gold.Goldscore.Constraint.Score>
0.0

> <Gold.Id.Protein>
1ZXM|1ZXM_protein|mol2

> <Gold.Protein.RotatedAtoms>
   40.6750    3.3830   41.8637 H   0  0  0  0  0  0  0  0  0  0  0  0  # atno 6897 bound_to 962 
   42.5663   -2.5035   38.2571 H   0  0  0  0  0  0  0  0  0  0  0  0  # atno 6906 bound_to 969 
   38.8111   -4.3840   40.0676 H   0  0  0  0  0  0  0  0  0  0  0  0  # atno 6910 bound_to 975 
   45.8911    1.1244   38.6740 H   0  0  0  0  0  0  0  0  0  0  0  0  # atno 6926 bound_to 995 
   28.0475    0.1168   43.0607 H   0  0  0  0  0  0  0  0  0  0  0  0  # atno 7140 bound_to 1220
   28.2838   -0.9017   41.0

> <Gold.Version>
5.3.0

> <Gold.Goldscore.Internal.Correction>
-0.0166

> <Gold.Goldscore.Internal.Vdw>
-1.3472

> <Gold.Goldscore.Internal.Vdw.Weighted>
-1.3472

> <Gold.Goldscore.External.HBond.Weighted>
1.4847

> <Gold.Goldscore.External.Vdw.Weighted>
72.2447

> <Gold.Goldscore.Internal.HBond.Weighted>
0.0

> <Gold.Goldscore.Hbonds>
donor molecule, donor type, donor heavy atom, donor atom, acceptor molecule, acceptor atom, score
      L1  H     1    27       P1   757  0.74

> <Gold.Goldscore.External.Vdw>
52.5416

> <Gold.Goldscore.Internal.Torsion>
-4.6232

> <Gold.Goldscore.Internal.Correction.Weighted>
-0.0166

> <Gold.Version>
5.3.0

> <Gold.Id.Protein>
1ZXM|1ZXM_protein|mol2

> <Gold.ASP.Fitness>
27.1798

> <Gold.ASP.ASP>
29.2120

> <Gold.ASP.Map>
-146.0600

> <Gold.ASP.DEClash>
1.3233

> <Gold.ASP.DEInternal>
0.7089

> <Gold.ASP.Internal.Correction>
0.1091

> <Gold.Protein.RotatedTorsions>
[ 8924 2752 2751 2750 ] final  105.21 input   60.00 | X-H torsion
[ 6908  969  968  965 ] final   62.49 input   59.99 | X-H torsion
[ 6912  975  974  971 ] final   -3.31 input   60.00 | X-H torsion
[ 6899  962  961  958 ] final  -50.61 input   60.00 | X-H torsion
[ 9165 2997 2996 2994 ] final  154.11 input   60.00 | X-H torsion
[ 7410 1497 1496 1493 ] final   89.67 input   60.00 | X-H torsion
[ 7137 1220 1219 1216 ] final  137.88 input   60.00 | X-H torsion
[ 6928  995  994  992 ] final -167.29 input   60.00 | X-H torsion

> <Gold.Protein.ActiveResidues>
 GLU87   ILE88   VAL90   ASN91   ALA92   ASP94   ASN95   ARG98   ILE118  ASN120 
 LYS123  GLY124  ILE125  ILE141  PHE142  THR147  SER148  SER149  ASN150  TYR151 
 GLY160  GLY161  ARG162  ASN163  GLY164  TYR165  GLY166  ALA167  LYS168  LEU169 
 THR181  THR215  ILE217  ILE317  GLN376  LYS378  ILE33   TYR34   MG903  

> <Gold.Protein.RotatedAtoms>
   41.9550    4.4006   41.8451 H   0  0  0  0  0  0  0  0  0  0  0  0  # atno 6899 bound_to 962 
   41.0668   -2.2187   38.7431 H   0  0  0  0  0  0  0  0  0  0  0  0  # atno 6908 bound_to 969 
   38.8550   -4.5176   40.0367 H   0  0  0  0  0  0  0  0  0  0  0  0  # atno 6912 bound_to 975 
   46.0317    1.6111   40.4652 H   0  0  0  0  0  0  0  0  0  0  0  0  # atno 6928 bound_to 995 
   28.3482    0.0928   43.2698 H   0  0  0  0  0  0  0  0  0  0  0  0  # atno 7137 bound_to 1220
   27.1466   -1.3251   41.1510 H   0  0  0  0  0  0  0  0  0  0  0  0  # atno 7410 bound_to 1497
   43.4860    0.7185   30.0621 H   0  0  0  0  0  0  0  0  0  0  0  0  # atno 8924 bound_to 2752
   43.4617   -0.6332   31.0210 H   0  0  0  0  0  0  0  0  0  0  0  0  # atno 8925 bound_to 2752
   44.0667   -0.7207   29.4803 H   0  0  0  0  0  0  0  0  0  0  0  0  # atno 8926 bound_to 2752
   34.2857   -5.1109   45.3282 H   0  0  0  0  0  0  0  0  0  0  0  0  # atno 9165 bound_to 2997
   41.9982   -3.2182   39.6272 LP  0  0  0  0  0  0  0  0  0  0  0  0  # atno 11896 bound_to 969 
   42.5934   -2.5281   38.2722 LP  0  0  0  0  0  0  0  0  0  0  0  0  # atno 11897 bound_to 969 
   37.4638   -4.1576   40.8002 LP  0  0  0  0  0  0  0  0  0  0  0  0  # atno 11898 bound_to 975 
   37.8564   -5.7146   40.5036 LP  0  0  0  0  0  0  0  0  0  0  0  0  # atno 11899 bound_to 975 
   40.7900    4.5500   42.9713 LP  0  0  0  0  0  0  0  0  0  0  0  0  # atno 11904 bound_to 962 
   40.6905    3.3764   41.8401 LP  0  0  0  0  0  0  0  0  0  0  0  0  # atno 11905 bound_to 962 
   34.6657   -4.5952   43.8323 LP  0  0  0  0  0  0  0  0  0  0  0  0  # atno 11912 bound_to 2997
   33.8348   -3.6230   44.8478 LP  0  0  0  0  0  0  0  0  0  0  0  0  # atno 11913 bound_to 2997
   27.0454   -0.0012   42.0918 LP  0  0  0  0  0  0  0  0  0  0  0  0  # atno 11922 bound_to 1497
   28.4550   -0.3804   41.3597 LP  0  0  0  0  0  0  0  0  0  0  0  0  # atno 11923 bound_to 1497
   26.7679   -0.0253   43.6393 LP  0  0  0  0  0  0  0  0  0  0  0  0  # atno 11930 bound_to 1220
   27.8967   -0.1792   44.8093 LP  0  0  0  0  0  0  0  0  0  0  0  0  # atno 11931 bound_to 1220

$$$$
****|SGG-4|sdf|1|dock79
  -GOLD-   9 72311503D 1   1.00000     0.00000

 46 48  0  0  0  0  0  0  0  0  1 V2000
   39.8925    0.2156   37.6257 S   0  0  0  0  0  0  0  0  0  0  0  0
   40.1510    1.0179   36.1287 C   0  0  0  0  0  0  0  0  0  0  0  0
   39.5203    2.1629   35.9834 N   0  0  0  0  0  0  0  0  0  0  0  0
   38.7836    2.4334   37.1190 C   0  0  0  0  0  0  0  0  0  0  0  0
   38.8589    1.4915   38.1275 C   0  0  0  0  0  0  0  0  0  0  0  0
   38.1738    1.4531   39.4553 C   0  0  0  0  0  0  0  0  0  0  0  0
   38.6985    0.0012   40.4232 S   0  0  0  0  0  0  0  0  0  0  0  0
   37.3887   -1.0953   40.0080 C   0  0  0  0  0  0  0  0  0  0  0  0
   37.4802   -1.8408   38.8424 N   0  0  0  0  0  0  0  0  0  0  0  0
   36.4507   -2.7042   38.4886 C   0  0  0  0  0  0  0  0  0  0  0  0
   36.5394   -3.4674   37.3222 O   0  0  0  0  0  0  0  0  0  0  0  0
   35.3691   -2.7922   39.2689 N   0  0  0  0  0  0  0  0  0  0  0  0
   35.3516   -2.0345   40.3721 C   0  0  0  0  0  0  0  0  0  0  0  0
   33.8826   -2.1135   41.3615 S   0  0  0  0  0  0  0  0  0  0  0  0
   32.7888   -2.7356   40.0586 C   0  0  0  0  0  0  0  0  0  0  0  0
   32.2323   -1.6279   39.2005 C   0  0  0  0  0  0  0  0  0  0  0  0
   31.1585   -1.8609   38.3332 C   0  0  0  0  0  0  0  0  0  0  0  0
   30.6274   -0.8219   37.5623 C   0  0  0  0  0  0  0  0  0  0  0  0
   31.1682    0.4700   37.6278 C   0  0  0  0  0  0  0  0  0  0  0  0
   32.2512    0.6961   38.4893 C   0  0  0  0  0  0  0  0  0  0  0  0
   32.7791   -0.3398   39.2639 C   0  0  0  0  0  0  0  0  0  0  0  0
   33.6209   -0.1332   39.9219 H   0  0  0  0  0  0  0  0  0  0  0  0
   32.6929    1.6872   38.5690 H   0  0  0  0  0  0  0  0  0  0  0  0
   30.5957    1.6287   36.8300 C   0  0  0  0  0  0  0  0  0  0  0  0
   29.6128    1.1170   35.7747 C   0  0  0  0  0  0  0  0  0  0  0  0
   30.1081    0.4760   35.0370 H   0  0  0  0  0  0  0  0  0  0  0  0
   28.8096    0.5325   36.2376 H   0  0  0  0  0  0  0  0  0  0  0  0
   29.1507    1.9529   35.2387 H   0  0  0  0  0  0  0  0  0  0  0  0
   31.6718    2.5081   36.1875 C   0  0  0  0  0  0  0  0  0  0  0  0
   32.1759    2.0035   35.3564 H   0  0  0  0  0  0  0  0  0  0  0  0
   32.4333    2.7954   36.9207 H   0  0  0  0  0  0  0  0  0  0  0  0
   31.2260    3.4264   35.7895 H   0  0  0  0  0  0  0  0  0  0  0  0
   30.0360    2.2764   37.5184 H   0  0  0  0  0  0  0  0  0  0  0  0
   29.7800   -1.0357   36.9156 H   0  0  0  0  0  0  0  0  0  0  0  0
   30.7195   -2.8532   38.2558 H   0  0  0  0  0  0  0  0  0  0  0  0
   31.9519   -3.2901   40.5006 H   0  0  0  0  0  0  0  0  0  0  0  0
   33.3425   -3.4488   39.4365 H   0  0  0  0  0  0  0  0  0  0  0  0
   36.3072   -1.1915   40.7814 N   0  0  0  0  0  0  0  0  0  0  0  0
   38.2989   -1.7501   38.2573 H   0  0  0  0  0  0  0  0  0  0  0  0
   38.4275    2.3635   40.0112 H   0  0  0  0  0  0  0  0  0  0  0  0
   37.0856    1.4260   39.3330 H   0  0  0  0  0  0  0  0  0  0  0  0
   38.2007    3.3462   37.1580 H   0  0  0  0  0  0  0  0  0  0  0  0
   41.0258    0.4041   35.0935 C   0  0  0  0  0  0  0  0  0  0  0  0
   42.0184    0.1978   35.5069 H   0  0  0  0  0  0  0  0  0  0  0  0
   41.1454    1.0862   34.2458 H   0  0  0  0  0  0  0  0  0  0  0  0
   40.6117   -0.5409   34.7279 H   0  0  0  0  0  0  0  0  0  0  0  0
  1  2  1  0  0  0  0
  1  5  1  0  0  0  0
  2  3  2  0  0  0  0
  2 43  1  0  0  0  0
  3  4  1  0  0  0  0
  4  5  2  0  0  0  0
  4 42  1  0  0  0  0
  5  6  1  0  0  0  0
  6  7  1  0  0  0  0
  6 40  1  0  0  0  0
  6 41  1  0  0  0  0
  7  8  1  0  0  0  0
  8  9  1  0  0  0  0
  8 38  2  0  0  0  0
  9 10  1  0  0  0  0
  9 39  1  0  0  0  0
 10 11  2  0  0  0  0
 10 12  1  0  0  0  0
 12 13  2  0  0  0  0
 13 14  1  0  0  0  0
 13 38  1  0  0  0  0
 14 15  1  0  0  0  0
 15 16  1  0  0  0  0
 15 36  1  0  0  0  0
 15 37  1  0  0  0  0
 16 17  1  0  0  0  0
 16 21  2  0  0  0  0
 17 18  2  0  0  0  0
 17 35  1  0  0  0  0
 18 19  1  0  0  0  0
 18 34  1  0  0  0  0
 19 20  2  0  0  0  0
 19 24  1  0  0  0  0
 20 21  1  0  0  0  0
 20 23  1  0  0  0  0
 21 22  1  0  0  0  0
 24 25  1  0  0  0  0
 24 29  1  0  0  0  0
 24 33  1  0  0  0  0
 25 26  1  0  0  0  0
 25 27  1  0  0  0  0
 25 28  1  0  0  0  0
 29 30  1  0  0  0  0
 29 31  1  0  0  0  0
 29 32  1  0  0  0  0
 43 44  1  0  0  0  0
 43 45  1  0  0  0  0
 43 46  1  0  0  0  0
M  END
> <Gold.Goldscore.Fitness>
67.7756

> <Gold.Goldscore.External.HBond>
1.4847

> <Gold.Protein.ActiveResidues>
 GLU87   ILE88   VAL90   ASN91   ALA92   ASP94   ASN95   ARG98   ILE118  ASN120 
 LYS123  GLY124  ILE125  ILE141  PHE142  THR147  SER148  SER149  ASN150  TYR151 
 GLY160  GLY161  ARG162  ASN163  GLY164  TYR165  GLY166  ALA167  LYS168  LEU169 
 THR181  THR215  ILE217  ILE317  GLN376  LYS378  ILE33   TYR34   MG903  

> <Gold.Goldscore.Internal.HBond>
0.0

> <Gold.Goldscore.Internal.Torsion.Weighted>
-4.6232

> <Gold.Protein.RotatedTorsions>
[ 8833 2752 2751 2750 ] final  -92.65 input   60.00 | X-H torsion
[ 6906  969  968  965 ] final -179.89 input   59.99 | X-H torsion
[ 6910  975  974  971 ] final  -12.12 input   60.00 | X-H torsion
[ 6897  962  961  958 ] final   71.11 input   60.00 | X-H torsion
[ 9084 2997 2996 2994 ] final  -38.60 input   60.00 | X-H torsion
[ 7406 1497 1496 1493 ] final  170.76 input   60.00 | X-H torsion
[ 7140 1220 1219 1216 ] final  115.27 input   60.00 | X-H torsion
[ 6926  995  994  992 ] final   25.13 input   60.0

> <Gold.Goldscore.Constraint.Score>
0.0

> <Gold.Id.Protein>
1ZXM|1ZXM_protein|mol2

> <Gold.Protein.RotatedAtoms>
   40.6750    3.3830   41.8637 H   0  0  0  0  0  0  0  0  0  0  0  0  # atno 6897 bound_to 962 
   42.5663   -2.5035   38.2571 H   0  0  0  0  0  0  0  0  0  0  0  0  # atno 6906 bound_to 969 
   38.8111   -4.3840   40.0676 H   0  0  0  0  0  0  0  0  0  0  0  0  # atno 6910 bound_to 975 
   45.8911    1.1244   38.6740 H   0  0  0  0  0  0  0  0  0  0  0  0  # atno 6926 bound_to 995 
   28.0475    0.1168   43.0607 H   0  0  0  0  0  0  0  0  0  0  0  0  # atno 7140 bound_to 1220
   28.2838   -0.9017   41.0

> <Gold.Version>
5.3.0

> <Gold.Goldscore.Internal.Correction>
-0.0166

> <Gold.Goldscore.Internal.Vdw>
-1.3472

> <Gold.Goldscore.Internal.Vdw.Weighted>
-1.3472

> <Gold.Goldscore.External.HBond.Weighted>
1.4847

> <Gold.Goldscore.External.Vdw.Weighted>
72.2447

> <Gold.Goldscore.Internal.HBond.Weighted>
0.0

> <Gold.Goldscore.Hbonds>
donor molecule, donor type, donor heavy atom, donor atom, acceptor molecule, acceptor atom, score
      L1  H     1    27       P1   757  0.74

> <Gold.Goldscore.External.Vdw>
52.5416

> <Gold.Goldscore.Internal.Torsion>
-4.6232

> <Gold.Goldscore.Internal.Correction.Weighted>
-0.0166

> <Gold.Version>
5.3.0

> <Gold.Id.Protein>
1ZXM|1ZXM_protein|mol2

> <Gold.ASP.Fitness>
27.1347

> <Gold.ASP.ASP>
29.4020

> <Gold.ASP.Map>
-147.0100

> <Gold.ASP.DEClash>
0.8204

> <Gold.ASP.DEInternal>
1.4468

> <Gold.ASP.Internal.Correction>
0.1091

> <Gold.Protein.RotatedTorsions>
[ 8924 2752 2751 2750 ] final  143.40 input   60.00 | X-H torsion
[ 6908  969  968  965 ] final   85.10 input   59.99 | X-H torsion
[ 6912  975  974  971 ] final  115.26 input   60.00 | X-H torsion
[ 6899  962  961  958 ] final   83.86 input   60.00 | X-H torsion
[ 9165 2997 2996 2994 ] final -122.79 input   60.00 | X-H torsion
[ 7410 1497 1496 1493 ] final -158.97 input   60.00 | X-H torsion
[ 7137 1220 1219 1216 ] final  -11.68 input   60.00 | X-H torsion
[ 6928  995  994  992 ] final   43.10 input   60.00 | X-H torsion

> <Gold.Protein.ActiveResidues>
 GLU87   ILE88   VAL90   ASN91   ALA92   ASP94   ASN95   ARG98   ILE118  ASN120 
 LYS123  GLY124  ILE125  ILE141  PHE142  THR147  SER148  SER149  ASN150  TYR151 
 GLY160  GLY161  ARG162  ASN163  GLY164  TYR165  GLY166  ALA167  LYS168  LEU169 
 THR181  THR215  ILE217  ILE317  GLN376  LYS378  ILE33   TYR34   MG903  

> <Gold.Protein.RotatedAtoms>
   40.5417    3.4242   42.0179 H   0  0  0  0  0  0  0  0  0  0  0  0  # atno 6899 bound_to 962 
   41.2608   -2.0999   38.4551 H   0  0  0  0  0  0  0  0  0  0  0  0  # atno 6908 bound_to 969 
   37.8791   -5.7132   40.4942 H   0  0  0  0  0  0  0  0  0  0  0  0  # atno 6912 bound_to 975 
   45.6156    1.1425   38.7704 H   0  0  0  0  0  0  0  0  0  0  0  0  # atno 6928 bound_to 995 
   26.7621   -0.1013   44.1126 H   0  0  0  0  0  0  0  0  0  0  0  0  # atno 7137 bound_to 1220
   28.4463   -0.4973   41.2799 H   0  0  0  0  0  0  0  0  0  0  0  0  # atno 7410 bound_to 1497
   43.3098    0.5507   30.6388 H   0  0  0  0  0  0  0  0  0  0  0  0  # atno 8924 bound_to 2752
   43.7138   -1.0567   30.6351 H   0  0  0  0  0  0  0  0  0  0  0  0  # atno 8925 bound_to 2752
   43.9908   -0.1294   29.2895 H   0  0  0  0  0  0  0  0  0  0  0  0  # atno 8926 bound_to 2752
   33.7933   -3.9708   45.3284 H   0  0  0  0  0  0  0  0  0  0  0  0  # atno 9165 bound_to 2997
   41.6491   -3.1060   39.6738 LP  0  0  0  0  0  0  0  0  0  0  0  0  # atno 11896 bound_to 969 
   42.7470   -2.7599   38.5156 LP  0  0  0  0  0  0  0  0  0  0  0  0  # atno 11897 bound_to 969 
   38.8536   -4.4931   40.0362 LP  0  0  0  0  0  0  0  0  0  0  0  0  # atno 11898 bound_to 975 
   37.4495   -4.1751   40.8069 LP  0  0  0  0  0  0  0  0  0  0  0  0  # atno 11899 bound_to 975 
   41.9194    4.2256   41.6899 LP  0  0  0  0  0  0  0  0  0  0  0  0  # atno 11904 bound_to 962 
   40.9843    4.6842   42.9476 LP  0  0  0  0  0  0  0  0  0  0  0  0  # atno 11905 bound_to 962 
   34.5673   -5.3190   44.8475 LP  0  0  0  0  0  0  0  0  0  0  0  0  # atno 11912 bound_to 2997
   34.4291   -4.0474   43.8324 LP  0  0  0  0  0  0  0  0  0  0  0  0  # atno 11913 bound_to 2997
   27.0266   -1.2902   41.2180 LP  0  0  0  0  0  0  0  0  0  0  0  0  # atno 11922 bound_to 1497
   27.1648    0.0748   42.1036 LP  0  0  0  0  0  0  0  0  0  0  0  0  # atno 11923 bound_to 1497
   28.3191   -0.1275   44.5848 LP  0  0  0  0  0  0  0  0  0  0  0  0  # atno 11930 bound_to 1220
   27.9430    0.1185   43.0149 LP  0  0  0  0  0  0  0  0  0  0  0  0  # atno 11931 bound_to 1220

$$$$
****|SGG-4|sdf|1|dock65
  -GOLD-   9 72311493D 1   1.00000     0.00000

 46 48  0  0  0  0  0  0  0  0  1 V2000
   35.8826    0.0268   38.0396 S   0  0  0  0  0  0  0  0  0  0  0  0
   36.8161    1.4190   38.4163 C   0  0  0  0  0  0  0  0  0  0  0  0
   38.0589    1.4010   37.9861 N   0  0  0  0  0  0  0  0  0  0  0  0
   38.3001    0.2185   37.3158 C   0  0  0  0  0  0  0  0  0  0  0  0
   37.2361   -0.6598   37.2368 C   0  0  0  0  0  0  0  0  0  0  0  0
   37.1610   -2.0206   36.6231 C   0  0  0  0  0  0  0  0  0  0  0  0
   35.4312   -2.5204   36.3436 S   0  0  0  0  0  0  0  0  0  0  0  0
   35.1232   -3.3194   37.8789 C   0  0  0  0  0  0  0  0  0  0  0  0
   35.4812   -4.6507   38.0274 N   0  0  0  0  0  0  0  0  0  0  0  0
   35.2354   -5.3052   39.2281 C   0  0  0  0  0  0  0  0  0  0  0  0
   35.6030   -6.6429   39.3906 O   0  0  0  0  0  0  0  0  0  0  0  0
   34.6354   -4.6471   40.2248 N   0  0  0  0  0  0  0  0  0  0  0  0
   34.3128   -3.3675   40.0014 C   0  0  0  0  0  0  0  0  0  0  0  0
   33.4590   -2.5282   41.3090 S   0  0  0  0  0  0  0  0  0  0  0  0
   31.8031   -2.6470   40.5847 C   0  0  0  0  0  0  0  0  0  0  0  0
   31.5538   -1.5820   39.5472 C   0  0  0  0  0  0  0  0  0  0  0  0
   32.2786   -0.3844   39.5577 C   0  0  0  0  0  0  0  0  0  0  0  0
   32.0638    0.5866   38.5745 C   0  0  0  0  0  0  0  0  0  0  0  0
   31.1078    0.3904   37.5679 C   0  0  0  0  0  0  0  0  0  0  0  0
   30.3760   -0.8057   37.5680 C   0  0  0  0  0  0  0  0  0  0  0  0
   30.5935   -1.7788   38.5466 C   0  0  0  0  0  0  0  0  0  0  0  0
   30.0085   -2.6961   38.5206 H   0  0  0  0  0  0  0  0  0  0  0  0
   29.6293   -0.9936   36.7993 H   0  0  0  0  0  0  0  0  0  0  0  0
   30.8718    1.4087   36.4660 C   0  0  0  0  0  0  0  0  0  0  0  0
   31.8146    2.6026   36.6306 C   0  0  0  0  0  0  0  0  0  0  0  0
   31.6265    3.1412   37.5659 H   0  0  0  0  0  0  0  0  0  0  0  0
   32.8612    2.2775   36.6385 H   0  0  0  0  0  0  0  0  0  0  0  0
   31.6913    3.3099   35.8036 H   0  0  0  0  0  0  0  0  0  0  0  0
   29.4162    1.8754   36.3781 C   0  0  0  0  0  0  0  0  0  0  0  0
   29.1361    2.5162   37.2210 H   0  0  0  0  0  0  0  0  0  0  0  0
   28.7305    1.0213   36.3601 H   0  0  0  0  0  0  0  0  0  0  0  0
   29.2560    2.4537   35.4615 H   0  0  0  0  0  0  0  0  0  0  0  0
   31.1036    0.9330   35.5033 H   0  0  0  0  0  0  0  0  0  0  0  0
   32.6602    1.4952   38.6027 H   0  0  0  0  0  0  0  0  0  0  0  0
   33.0242   -0.1998   40.3280 H   0  0  0  0  0  0  0  0  0  0  0  0
   31.0406   -2.5578   41.3682 H   0  0  0  0  0  0  0  0  0  0  0  0
   31.6780   -3.6408   40.1385 H   0  0  0  0  0  0  0  0  0  0  0  0
   34.5275   -2.6703   38.8792 N   0  0  0  0  0  0  0  0  0  0  0  0
   35.9205   -5.1362   37.2579 H   0  0  0  0  0  0  0  0  0  0  0  0
   37.6881   -2.0053   35.6618 H   0  0  0  0  0  0  0  0  0  0  0  0
   37.6486   -2.7649   37.2621 H   0  0  0  0  0  0  0  0  0  0  0  0
   39.2854    0.0466   36.8985 H   0  0  0  0  0  0  0  0  0  0  0  0
   36.2137    2.5339   39.1958 C   0  0  0  0  0  0  0  0  0  0  0  0
   35.3061    2.8969   38.7026 H   0  0  0  0  0  0  0  0  0  0  0  0
   36.9180    3.3686   39.2691 H   0  0  0  0  0  0  0  0  0  0  0  0
   35.9414    2.2146   40.2068 H   0  0  0  0  0  0  0  0  0  0  0  0
  1  2  1  0  0  0  0
  1  5  1  0  0  0  0
  2  3  2  0  0  0  0
  2 43  1  0  0  0  0
  3  4  1  0  0  0  0
  4  5  2  0  0  0  0
  4 42  1  0  0  0  0
  5  6  1  0  0  0  0
  6  7  1  0  0  0  0
  6 40  1  0  0  0  0
  6 41  1  0  0  0  0
  7  8  1  0  0  0  0
  8  9  1  0  0  0  0
  8 38  2  0  0  0  0
  9 10  1  0  0  0  0
  9 39  1  0  0  0  0
 10 11  2  0  0  0  0
 10 12  1  0  0  0  0
 12 13  2  0  0  0  0
 13 14  1  0  0  0  0
 13 38  1  0  0  0  0
 14 15  1  0  0  0  0
 15 16  1  0  0  0  0
 15 36  1  0  0  0  0
 15 37  1  0  0  0  0
 16 17  1  0  0  0  0
 16 21  2  0  0  0  0
 17 18  2  0  0  0  0
 17 35  1  0  0  0  0
 18 19  1  0  0  0  0
 18 34  1  0  0  0  0
 19 20  2  0  0  0  0
 19 24  1  0  0  0  0
 20 21  1  0  0  0  0
 20 23  1  0  0  0  0
 21 22  1  0  0  0  0
 24 25  1  0  0  0  0
 24 29  1  0  0  0  0
 24 33  1  0  0  0  0
 25 26  1  0  0  0  0
 25 27  1  0  0  0  0
 25 28  1  0  0  0  0
 29 30  1  0  0  0  0
 29 31  1  0  0  0  0
 29 32  1  0  0  0  0
 43 44  1  0  0  0  0
 43 45  1  0  0  0  0
 43 46  1  0  0  0  0
M  END
> <Gold.Goldscore.Fitness>
67.7756

> <Gold.Goldscore.External.HBond>
1.4847

> <Gold.Protein.ActiveResidues>
 GLU87   ILE88   VAL90   ASN91   ALA92   ASP94   ASN95   ARG98   ILE118  ASN120 
 LYS123  GLY124  ILE125  ILE141  PHE142  THR147  SER148  SER149  ASN150  TYR151 
 GLY160  GLY161  ARG162  ASN163  GLY164  TYR165  GLY166  ALA167  LYS168  LEU169 
 THR181  THR215  ILE217  ILE317  GLN376  LYS378  ILE33   TYR34   MG903  

> <Gold.Goldscore.Internal.HBond>
0.0

> <Gold.Goldscore.Internal.Torsion.Weighted>
-4.6232

> <Gold.Protein.RotatedTorsions>
[ 8833 2752 2751 2750 ] final  -92.65 input   60.00 | X-H torsion
[ 6906  969  968  965 ] final -179.89 input   59.99 | X-H torsion
[ 6910  975  974  971 ] final  -12.12 input   60.00 | X-H torsion
[ 6897  962  961  958 ] final   71.11 input   60.00 | X-H torsion
[ 9084 2997 2996 2994 ] final  -38.60 input   60.00 | X-H torsion
[ 7406 1497 1496 1493 ] final  170.76 input   60.00 | X-H torsion
[ 7140 1220 1219 1216 ] final  115.27 input   60.00 | X-H torsion
[ 6926  995  994  992 ] final   25.13 input   60.0

> <Gold.Goldscore.Constraint.Score>
0.0

> <Gold.Id.Protein>
1ZXM|1ZXM_protein|mol2

> <Gold.Protein.RotatedAtoms>
   40.6750    3.3830   41.8637 H   0  0  0  0  0  0  0  0  0  0  0  0  # atno 6897 bound_to 962 
   42.5663   -2.5035   38.2571 H   0  0  0  0  0  0  0  0  0  0  0  0  # atno 6906 bound_to 969 
   38.8111   -4.3840   40.0676 H   0  0  0  0  0  0  0  0  0  0  0  0  # atno 6910 bound_to 975 
   45.8911    1.1244   38.6740 H   0  0  0  0  0  0  0  0  0  0  0  0  # atno 6926 bound_to 995 
   28.0475    0.1168   43.0607 H   0  0  0  0  0  0  0  0  0  0  0  0  # atno 7140 bound_to 1220
   28.2838   -0.9017   41.0

> <Gold.Version>
5.3.0

> <Gold.Goldscore.Internal.Correction>
-0.0166

> <Gold.Goldscore.Internal.Vdw>
-1.3472

> <Gold.Goldscore.Internal.Vdw.Weighted>
-1.3472

> <Gold.Goldscore.External.HBond.Weighted>
1.4847

> <Gold.Goldscore.External.Vdw.Weighted>
72.2447

> <Gold.Goldscore.Internal.HBond.Weighted>
0.0

> <Gold.Goldscore.Hbonds>
donor molecule, donor type, donor heavy atom, donor atom, acceptor molecule, acceptor atom, score
      L1  H     1    27       P1   757  0.74

> <Gold.Goldscore.External.Vdw>
52.5416

> <Gold.Goldscore.Internal.Torsion>
-4.6232

> <Gold.Goldscore.Internal.Correction.Weighted>
-0.0166

> <Gold.Version>
5.3.0

> <Gold.Id.Protein>
1ZXM|1ZXM_protein|mol2

> <Gold.ASP.Fitness>
27.1060

> <Gold.ASP.ASP>
28.6500

> <Gold.ASP.Map>
-143.2500

> <Gold.ASP.DEClash>
0.1708

> <Gold.ASP.DEInternal>
1.3731

> <Gold.ASP.Internal.Correction>
0.1091

> <Gold.Protein.RotatedTorsions>
[ 8924 2752 2751 2750 ] final  -61.61 input   60.00 | X-H torsion
[ 6908  969  968  965 ] final   92.64 input   59.99 | X-H torsion
[ 6912  975  974  971 ] final -146.42 input   60.00 | X-H torsion
[ 6899  962  961  958 ] final   20.07 input   60.00 | X-H torsion
[ 9165 2997 2996 2994 ] final  -21.41 input   60.00 | X-H torsion
[ 7410 1497 1496 1493 ] final   40.62 input   60.00 | X-H torsion
[ 7137 1220 1219 1216 ] final -117.79 input   60.00 | X-H torsion
[ 6928  995  994  992 ] final  -37.61 input   60.00 | X-H torsion

> <Gold.Protein.ActiveResidues>
 GLU87   ILE88   VAL90   ASN91   ALA92   ASP94   ASN95   ARG98   ILE118  ASN120 
 LYS123  GLY124  ILE125  ILE141  PHE142  THR147  SER148  SER149  ASN150  TYR151 
 GLY160  GLY161  ARG162  ASN163  GLY164  TYR165  GLY166  ALA167  LYS168  LEU169 
 THR181  THR215  ILE217  ILE317  GLN376  LYS378  ILE33   TYR34   MG903  

> <Gold.Protein.RotatedAtoms>
   41.3611    3.5705   41.4832 H   0  0  0  0  0  0  0  0  0  0  0  0  # atno 6899 bound_to 962 
   41.3488   -2.0786   38.3717 H   0  0  0  0  0  0  0  0  0  0  0  0  # atno 6908 bound_to 969 
   37.2908   -4.4828   40.8776 H   0  0  0  0  0  0  0  0  0  0  0  0  # atno 6912 bound_to 975 
   46.8017    1.2388   39.0021 H   0  0  0  0  0  0  0  0  0  0  0  0  # atno 6928 bound_to 995 
   28.1322   -0.1526   44.7119 H   0  0  0  0  0  0  0  0  0  0  0  0  # atno 7137 bound_to 1220
   26.6745   -0.9006   41.5993 H   0  0  0  0  0  0  0  0  0  0  0  0  # atno 7410 bound_to 1497
   43.9318   -1.1292   30.1074 H   0  0  0  0  0  0  0  0  0  0  0  0  # atno 8924 bound_to 2752
   43.7992    0.3879   29.4531 H   0  0  0  0  0  0  0  0  0  0  0  0  # atno 8925 bound_to 2752
   43.2835    0.1058   31.0028 H   0  0  0  0  0  0  0  0  0  0  0  0  # atno 8926 bound_to 2752
   34.2786   -3.8227   43.9713 H   0  0  0  0  0  0  0  0  0  0  0  0  # atno 9165 bound_to 2997
   41.5381   -3.0519   39.6620 LP  0  0  0  0  0  0  0  0  0  0  0  0  # atno 11896 bound_to 969 
   42.7694   -2.8354   38.6114 LP  0  0  0  0  0  0  0  0  0  0  0  0  # atno 11897 bound_to 969 
   38.1891   -5.7220   40.3248 LP  0  0  0  0  0  0  0  0  0  0  0  0  # atno 11898 bound_to 975 
   38.7064   -4.1851   40.1322 LP  0  0  0  0  0  0  0  0  0  0  0  0  # atno 11899 bound_to 975 
   41.7200    4.8156   42.4675 LP  0  0  0  0  0  0  0  0  0  0  0  0  # atno 11904 bound_to 962 
   40.3585    3.9468   42.7084 LP  0  0  0  0  0  0  0  0  0  0  0  0  # atno 11905 bound_to 962 
   33.8382   -4.2276   45.4847 LP  0  0  0  0  0  0  0  0  0  0  0  0  # atno 11912 bound_to 2997
   34.6695   -5.2878   44.5618 LP  0  0  0  0  0  0  0  0  0  0  0  0  # atno 11913 bound_to 2997
   27.7902    0.2172   41.9909 LP  0  0  0  0  0  0  0  0  0  0  0  0  # atno 11922 bound_to 1497
   28.1857   -1.0263   41.0091 LP  0  0  0  0  0  0  0  0  0  0  0  0  # atno 11923 bound_to 1497
   28.1518    0.1106   43.1062 LP  0  0  0  0  0  0  0  0  0  0  0  0  # atno 11930 bound_to 1220
   26.7304   -0.0680   43.8899 LP  0  0  0  0  0  0  0  0  0  0  0  0  # atno 11931 bound_to 1220

$$$$
****|SGG-4|sdf|1|dock13
  -GOLD-   9 72311443D 1   1.00000     0.00000

 46 48  0  0  0  0  0  0  0  0  1 V2000
   39.7402   -0.0958   38.0042 S   0  0  0  0  0  0  0  0  0  0  0  0
   39.9248    0.4773   36.3951 C   0  0  0  0  0  0  0  0  0  0  0  0
   39.2773    1.5863   36.1110 N   0  0  0  0  0  0  0  0  0  0  0  0
   38.5888    2.0195   37.2264 C   0  0  0  0  0  0  0  0  0  0  0  0
   38.7175    1.2371   38.3583 C   0  0  0  0  0  0  0  0  0  0  0  0
   38.0920    1.3933   39.7067 C   0  0  0  0  0  0  0  0  0  0  0  0
   36.2787    1.5174   39.5791 S   0  0  0  0  0  0  0  0  0  0  0  0
   35.8771   -0.1910   39.6812 C   0  0  0  0  0  0  0  0  0  0  0  0
   36.6390   -1.1042   38.9683 N   0  0  0  0  0  0  0  0  0  0  0  0
   36.3314   -2.4579   39.0246 C   0  0  0  0  0  0  0  0  0  0  0  0
   37.1002   -3.3862   38.3189 O   0  0  0  0  0  0  0  0  0  0  0  0
   35.2872   -2.8651   39.7529 N   0  0  0  0  0  0  0  0  0  0  0  0
   34.5959   -1.9226   40.4052 C   0  0  0  0  0  0  0  0  0  0  0  0
   33.1754   -2.4710   41.3131 S   0  0  0  0  0  0  0  0  0  0  0  0
   32.1638   -2.9026   39.8740 C   0  0  0  0  0  0  0  0  0  0  0  0
   31.6891   -1.6856   39.1215 C   0  0  0  0  0  0  0  0  0  0  0  0
   31.8366   -0.4030   39.6627 C   0  0  0  0  0  0  0  0  0  0  0  0
   31.4217    0.7242   38.9464 C   0  0  0  0  0  0  0  0  0  0  0  0
   30.8344    0.5944   37.6800 C   0  0  0  0  0  0  0  0  0  0  0  0
   30.6780   -0.6930   37.1468 C   0  0  0  0  0  0  0  0  0  0  0  0
   31.0970   -1.8194   37.8591 C   0  0  0  0  0  0  0  0  0  0  0  0
   30.9607   -2.8053   37.4191 H   0  0  0  0  0  0  0  0  0  0  0  0
   30.2305   -0.8309   36.1646 H   0  0  0  0  0  0  0  0  0  0  0  0
   30.4026    1.7982   36.8606 C   0  0  0  0  0  0  0  0  0  0  0  0
   29.4867    1.3637   35.7143 C   0  0  0  0  0  0  0  0  0  0  0  0
   30.0056    0.7058   35.0085 H   0  0  0  0  0  0  0  0  0  0  0  0
   28.6133    0.8216   36.0942 H   0  0  0  0  0  0  0  0  0  0  0  0
   29.1230    2.2345   35.1584 H   0  0  0  0  0  0  0  0  0  0  0  0
   31.5804    2.6211   36.3315 C   0  0  0  0  0  0  0  0  0  0  0  0
   32.1242    2.1002   35.5362 H   0  0  0  0  0  0  0  0  0  0  0  0
   32.2909    2.8501   37.1331 H   0  0  0  0  0  0  0  0  0  0  0  0
   31.2257    3.5708   35.9161 H   0  0  0  0  0  0  0  0  0  0  0  0
   29.8244    2.4675   37.5119 H   0  0  0  0  0  0  0  0  0  0  0  0
   31.5714    1.7055   39.3898 H   0  0  0  0  0  0  0  0  0  0  0  0
   32.2842   -0.2688   40.6451 H   0  0  0  0  0  0  0  0  0  0  0  0
   31.2881   -3.4837   40.1881 H   0  0  0  0  0  0  0  0  0  0  0  0
   32.7464   -3.5506   39.2082 H   0  0  0  0  0  0  0  0  0  0  0  0
   34.8390   -0.6065   40.4069 N   0  0  0  0  0  0  0  0  0  0  0  0
   37.4156   -0.7764   38.4114 H   0  0  0  0  0  0  0  0  0  0  0  0
   38.3480    0.5206   40.3192 H   0  0  0  0  0  0  0  0  0  0  0  0
   38.4758    2.2848   40.2146 H   0  0  0  0  0  0  0  0  0  0  0  0
   37.9994    2.9263   37.1565 H   0  0  0  0  0  0  0  0  0  0  0  0
   40.7590   -0.2800   35.4234 C   0  0  0  0  0  0  0  0  0  0  0  0
   41.7708   -0.4200   35.8177 H   0  0  0  0  0  0  0  0  0  0  0  0
   40.8346    0.2697   34.4799 H   0  0  0  0  0  0  0  0  0  0  0  0
   40.3383   -1.2699   35.2202 H   0  0  0  0  0  0  0  0  0  0  0  0
  1  2  1  0  0  0  0
  1  5  1  0  0  0  0
  2  3  2  0  0  0  0
  2 43  1  0  0  0  0
  3  4  1  0  0  0  0
  4  5  2  0  0  0  0
  4 42  1  0  0  0  0
  5  6  1  0  0  0  0
  6  7  1  0  0  0  0
  6 40  1  0  0  0  0
  6 41  1  0  0  0  0
  7  8  1  0  0  0  0
  8  9  1  0  0  0  0
  8 38  2  0  0  0  0
  9 10  1  0  0  0  0
  9 39  1  0  0  0  0
 10 11  2  0  0  0  0
 10 12  1  0  0  0  0
 12 13  2  0  0  0  0
 13 14  1  0  0  0  0
 13 38  1  0  0  0  0
 14 15  1  0  0  0  0
 15 16  1  0  0  0  0
 15 36  1  0  0  0  0
 15 37  1  0  0  0  0
 16 17  1  0  0  0  0
 16 21  2  0  0  0  0
 17 18  2  0  0  0  0
 17 35  1  0  0  0  0
 18 19  1  0  0  0  0
 18 34  1  0  0  0  0
 19 20  2  0  0  0  0
 19 24  1  0  0  0  0
 20 21  1  0  0  0  0
 20 23  1  0  0  0  0
 21 22  1  0  0  0  0
 24 25  1  0  0  0  0
 24 29  1  0  0  0  0
 24 33  1  0  0  0  0
 25 26  1  0  0  0  0
 25 27  1  0  0  0  0
 25 28  1  0  0  0  0
 29 30  1  0  0  0  0
 29 31  1  0  0  0  0
 29 32  1  0  0  0  0
 43 44  1  0  0  0  0
 43 45  1  0  0  0  0
 43 46  1  0  0  0  0
M  END
> <Gold.Goldscore.Fitness>
67.7756

> <Gold.Goldscore.External.HBond>
1.4847

> <Gold.Protein.ActiveResidues>
 GLU87   ILE88   VAL90   ASN91   ALA92   ASP94   ASN95   ARG98   ILE118  ASN120 
 LYS123  GLY124  ILE125  ILE141  PHE142  THR147  SER148  SER149  ASN150  TYR151 
 GLY160  GLY161  ARG162  ASN163  GLY164  TYR165  GLY166  ALA167  LYS168  LEU169 
 THR181  THR215  ILE217  ILE317  GLN376  LYS378  ILE33   TYR34   MG903  

> <Gold.Goldscore.Internal.HBond>
0.0

> <Gold.Goldscore.Internal.Torsion.Weighted>
-4.6232

> <Gold.Protein.RotatedTorsions>
[ 8833 2752 2751 2750 ] final  -92.65 input   60.00 | X-H torsion
[ 6906  969  968  965 ] final -179.89 input   59.99 | X-H torsion
[ 6910  975  974  971 ] final  -12.12 input   60.00 | X-H torsion
[ 6897  962  961  958 ] final   71.11 input   60.00 | X-H torsion
[ 9084 2997 2996 2994 ] final  -38.60 input   60.00 | X-H torsion
[ 7406 1497 1496 1493 ] final  170.76 input   60.00 | X-H torsion
[ 7140 1220 1219 1216 ] final  115.27 input   60.00 | X-H torsion
[ 6926  995  994  992 ] final   25.13 input   60.0

> <Gold.Goldscore.Constraint.Score>
0.0

> <Gold.Id.Protein>
1ZXM|1ZXM_protein|mol2

> <Gold.Protein.RotatedAtoms>
   40.6750    3.3830   41.8637 H   0  0  0  0  0  0  0  0  0  0  0  0  # atno 6897 bound_to 962 
   42.5663   -2.5035   38.2571 H   0  0  0  0  0  0  0  0  0  0  0  0  # atno 6906 bound_to 969 
   38.8111   -4.3840   40.0676 H   0  0  0  0  0  0  0  0  0  0  0  0  # atno 6910 bound_to 975 
   45.8911    1.1244   38.6740 H   0  0  0  0  0  0  0  0  0  0  0  0  # atno 6926 bound_to 995 
   28.0475    0.1168   43.0607 H   0  0  0  0  0  0  0  0  0  0  0  0  # atno 7140 bound_to 1220
   28.2838   -0.9017   41.0

> <Gold.Version>
5.3.0

> <Gold.Goldscore.Internal.Correction>
-0.0166

> <Gold.Goldscore.Internal.Vdw>
-1.3472

> <Gold.Goldscore.Internal.Vdw.Weighted>
-1.3472

> <Gold.Goldscore.External.HBond.Weighted>
1.4847

> <Gold.Goldscore.External.Vdw.Weighted>
72.2447

> <Gold.Goldscore.Internal.HBond.Weighted>
0.0

> <Gold.Goldscore.Hbonds>
donor molecule, donor type, donor heavy atom, donor atom, acceptor molecule, acceptor atom, score
      L1  H     1    27       P1   757  0.74

> <Gold.Goldscore.External.Vdw>
52.5416

> <Gold.Goldscore.Internal.Torsion>
-4.6232

> <Gold.Goldscore.Internal.Correction.Weighted>
-0.0166

> <Gold.Version>
5.3.0

> <Gold.Id.Protein>
1ZXM|1ZXM_protein|mol2

> <Gold.ASP.Fitness>
27.0897

> <Gold.ASP.ASP>
28.2760

> <Gold.ASP.Map>
-141.3800

> <Gold.ASP.DEClash>
0.3095

> <Gold.ASP.DEInternal>
0.8768

> <Gold.ASP.Internal.Correction>
0.1091

> <Gold.Protein.RotatedTorsions>
[ 8924 2752 2751 2750 ] final   69.46 input   60.00 | X-H torsion
[ 6908  969  968  965 ] final  160.61 input   59.99 | X-H torsion
[ 6912  975  974  971 ] final   -7.55 input   60.00 | X-H torsion
[ 6899  962  961  958 ] final  -30.12 input   60.00 | X-H torsion
[ 9165 2997 2996 2994 ] final  -14.49 input   60.00 | X-H torsion
[ 7410 1497 1496 1493 ] final  -33.99 input   60.00 | X-H torsion
[ 7137 1220 1219 1216 ] final  -35.23 input   60.00 | X-H torsion
[ 6928  995  994  992 ] final  107.17 input   60.00 | X-H torsion

> <Gold.Protein.ActiveResidues>
 GLU87   ILE88   VAL90   ASN91   ALA92   ASP94   ASN95   ARG98   ILE118  ASN120 
 LYS123  GLY124  ILE125  ILE141  PHE142  THR147  SER148  SER149  ASN150  TYR151 
 GLY160  GLY161  ARG162  ASN163  GLY164  TYR165  GLY166  ALA167  LYS168  LEU169 
 THR181  THR215  ILE217  ILE317  GLN376  LYS378  ILE33   TYR34   MG903  

> <Gold.Protein.RotatedAtoms>
   41.8840    4.1467   41.6418 H   0  0  0  0  0  0  0  0  0  0  0  0  # atno 6899 bound_to 962 
   42.3381   -2.3223   38.1318 H   0  0  0  0  0  0  0  0  0  0  0  0  # atno 6908 bound_to 969 
   38.8362   -4.4523   40.0504 H   0  0  0  0  0  0  0  0  0  0  0  0  # atno 6912 bound_to 975 
   45.1274    1.3546   39.6089 H   0  0  0  0  0  0  0  0  0  0  0  0  # atno 6928 bound_to 995 
   26.9240   -0.1521   44.4548 H   0  0  0  0  0  0  0  0  0  0  0  0  # atno 7137 bound_to 1220
   27.0974    0.0297   42.0925 H   0  0  0  0  0  0  0  0  0  0  0  0  # atno 7410 bound_to 1497
   43.7250    0.5137   29.5660 H   0  0  0  0  0  0  0  0  0  0  0  0  # atno 8924 bound_to 2752
   43.3053   -0.0683   31.0602 H   0  0  0  0  0  0  0  0  0  0  0  0  # atno 8925 bound_to 2752
   43.9841   -1.0808   29.9371 H   0  0  0  0  0  0  0  0  0  0  0  0  # atno 8926 bound_to 2752
   34.3359   -3.9005   43.9127 H   0  0  0  0  0  0  0  0  0  0  0  0  # atno 9165 bound_to 2997
   40.9915   -2.3974   39.0425 LP  0  0  0  0  0  0  0  0  0  0  0  0  # atno 11896 bound_to 969 
   42.3198   -3.2445   39.4725 LP  0  0  0  0  0  0  0  0  0  0  0  0  # atno 11897 bound_to 969 
   37.4226   -4.2105   40.8194 LP  0  0  0  0  0  0  0  0  0  0  0  0  # atno 11898 bound_to 975 
   37.9166   -5.7274   40.4706 LP  0  0  0  0  0  0  0  0  0  0  0  0  # atno 11899 bound_to 975 
   41.0689    4.7298   42.9238 LP  0  0  0  0  0  0  0  0  0  0  0  0  # atno 11904 bound_to 962 
   40.4830    3.4523   42.0924 LP  0  0  0  0  0  0  0  0  0  0  0  0  # atno 11905 bound_to 962 
   33.8139   -4.1270   45.4372 LP  0  0  0  0  0  0  0  0  0  0  0  0  # atno 11912 bound_to 2997
   34.6360   -5.3101   44.6683 LP  0  0  0  0  0  0  0  0  0  0  0  0  # atno 11913 bound_to 2997
   28.4568   -0.4299   41.3253 LP  0  0  0  0  0  0  0  0  0  0  0  0  # atno 11922 bound_to 1497
   27.0932   -1.3162   41.1780 LP  0  0  0  0  0  0  0  0  0  0  0  0  # atno 11923 bound_to 1497
   28.5391   -0.0687   44.2747 LP  0  0  0  0  0  0  0  0  0  0  0  0  # atno 11930 bound_to 1220
   27.5600    0.1109   42.9803 LP  0  0  0  0  0  0  0  0  0  0  0  0  # atno 11931 bound_to 1220

$$$$
****|SGG-4|sdf|1|dock2
  -GOLD-   9 72311443D 1   1.00000     0.00000

 46 48  0  0  0  0  0  0  0  0  1 V2000
   38.0175    0.2744   37.9844 S   0  0  0  0  0  0  0  0  0  0  0  0
   38.7738    1.7592   37.5666 C   0  0  0  0  0  0  0  0  0  0  0  0
   38.3060    2.8252   38.1788 N   0  0  0  0  0  0  0  0  0  0  0  0
   37.2861    2.4582   39.0337 C   0  0  0  0  0  0  0  0  0  0  0  0
   36.9829    1.1104   39.0700 C   0  0  0  0  0  0  0  0  0  0  0  0
   35.9307    0.3860   39.8459 C   0  0  0  0  0  0  0  0  0  0  0  0
   36.6276   -1.0630   40.7031 S   0  0  0  0  0  0  0  0  0  0  0  0
   36.0009   -2.3299   39.6579 C   0  0  0  0  0  0  0  0  0  0  0  0
   36.8601   -2.9493   38.7631 N   0  0  0  0  0  0  0  0  0  0  0  0
   36.3830   -3.9443   37.9188 C   0  0  0  0  0  0  0  0  0  0  0  0
   37.2438   -4.5815   37.0222 O   0  0  0  0  0  0  0  0  0  0  0  0
   35.0904   -4.2813   37.9645 N   0  0  0  0  0  0  0  0  0  0  0  0
   34.3234   -3.6320   38.8487 C   0  0  0  0  0  0  0  0  0  0  0  0
   32.5991   -4.0441   38.8512 S   0  0  0  0  0  0  0  0  0  0  0  0
   32.0667   -2.7002   39.9427 C   0  0  0  0  0  0  0  0  0  0  0  0
   31.6752   -1.4616   39.1776 C   0  0  0  0  0  0  0  0  0  0  0  0
   32.3244   -0.2420   39.4032 C   0  0  0  0  0  0  0  0  0  0  0  0
   31.9770    0.8961   38.6685 C   0  0  0  0  0  0  0  0  0  0  0  0
   30.9614    0.8458   37.7034 C   0  0  0  0  0  0  0  0  0  0  0  0
   30.3059   -0.3751   37.4889 C   0  0  0  0  0  0  0  0  0  0  0  0
   30.6557   -1.5141   38.2185 C   0  0  0  0  0  0  0  0  0  0  0  0
   30.1274   -2.4466   38.0301 H   0  0  0  0  0  0  0  0  0  0  0  0
   29.5160   -0.4519   36.7446 H   0  0  0  0  0  0  0  0  0  0  0  0
   30.5811    2.0535   36.8646 C   0  0  0  0  0  0  0  0  0  0  0  0
   29.4999    1.6794   35.8484 C   0  0  0  0  0  0  0  0  0  0  0  0
   29.8587    0.9323   35.1319 H   0  0  0  0  0  0  0  0  0  0  0  0
   28.6182    1.2637   36.3491 H   0  0  0  0  0  0  0  0  0  0  0  0
   29.1781    2.5608   35.2836 H   0  0  0  0  0  0  0  0  0  0  0  0
   31.7787    2.7044   36.1672 C   0  0  0  0  0  0  0  0  0  0  0  0
   32.1678    2.0861   35.3512 H   0  0  0  0  0  0  0  0  0  0  0  0
   32.5954    2.8835   36.8749 H   0  0  0  0  0  0  0  0  0  0  0  0
   31.4905    3.6696   35.7363 H   0  0  0  0  0  0  0  0  0  0  0  0
   30.1589    2.8165   37.5326 H   0  0  0  0  0  0  0  0  0  0  0  0
   32.5174    1.8206   38.8565 H   0  0  0  0  0  0  0  0  0  0  0  0
   33.1135   -0.1688   40.1484 H   0  0  0  0  0  0  0  0  0  0  0  0
   32.8709   -2.4402   40.6420 H   0  0  0  0  0  0  0  0  0  0  0  0
   31.2230   -3.0463   40.5515 H   0  0  0  0  0  0  0  0  0  0  0  0
   34.7138   -2.6743   39.6982 N   0  0  0  0  0  0  0  0  0  0  0  0
   37.8310   -2.6711   38.7324 H   0  0  0  0  0  0  0  0  0  0  0  0
   35.5048    1.0700   40.5894 H   0  0  0  0  0  0  0  0  0  0  0  0
   35.1188    0.0554   39.1890 H   0  0  0  0  0  0  0  0  0  0  0  0
   36.7906    3.2267   39.6154 H   0  0  0  0  0  0  0  0  0  0  0  0
   39.8685    1.7826   36.5591 C   0  0  0  0  0  0  0  0  0  0  0  0
   40.6726    1.1006   36.8543 H   0  0  0  0  0  0  0  0  0  0  0  0
   40.2888    2.7901   36.4799 H   0  0  0  0  0  0  0  0  0  0  0  0
   39.5112    1.4726   35.5720 H   0  0  0  0  0  0  0  0  0  0  0  0
  1  2  1  0  0  0  0
  1  5  1  0  0  0  0
  2  3  2  0  0  0  0
  2 43  1  0  0  0  0
  3  4  1  0  0  0  0
  4  5  2  0  0  0  0
  4 42  1  0  0  0  0
  5  6  1  0  0  0  0
  6  7  1  0  0  0  0
  6 40  1  0  0  0  0
  6 41  1  0  0  0  0
  7  8  1  0  0  0  0
  8  9  1  0  0  0  0
  8 38  2  0  0  0  0
  9 10  1  0  0  0  0
  9 39  1  0  0  0  0
 10 11  2  0  0  0  0
 10 12  1  0  0  0  0
 12 13  2  0  0  0  0
 13 14  1  0  0  0  0
 13 38  1  0  0  0  0
 14 15  1  0  0  0  0
 15 16  1  0  0  0  0
 15 36  1  0  0  0  0
 15 37  1  0  0  0  0
 16 17  1  0  0  0  0
 16 21  2  0  0  0  0
 17 18  2  0  0  0  0
 17 35  1  0  0  0  0
 18 19  1  0  0  0  0
 18 34  1  0  0  0  0
 19 20  2  0  0  0  0
 19 24  1  0  0  0  0
 20 21  1  0  0  0  0
 20 23  1  0  0  0  0
 21 22  1  0  0  0  0
 24 25  1  0  0  0  0
 24 29  1  0  0  0  0
 24 33  1  0  0  0  0
 25 26  1  0  0  0  0
 25 27  1  0  0  0  0
 25 28  1  0  0  0  0
 29 30  1  0  0  0  0
 29 31  1  0  0  0  0
 29 32  1  0  0  0  0
 43 44  1  0  0  0  0
 43 45  1  0  0  0  0
 43 46  1  0  0  0  0
M  END
> <Gold.Goldscore.Fitness>
67.7756

> <Gold.Goldscore.External.HBond>
1.4847

> <Gold.Protein.ActiveResidues>
 GLU87   ILE88   VAL90   ASN91   ALA92   ASP94   ASN95   ARG98   ILE118  ASN120 
 LYS123  GLY124  ILE125  ILE141  PHE142  THR147  SER148  SER149  ASN150  TYR151 
 GLY160  GLY161  ARG162  ASN163  GLY164  TYR165  GLY166  ALA167  LYS168  LEU169 
 THR181  THR215  ILE217  ILE317  GLN376  LYS378  ILE33   TYR34   MG903  

> <Gold.Goldscore.Internal.HBond>
0.0

> <Gold.Goldscore.Internal.Torsion.Weighted>
-4.6232

> <Gold.Protein.RotatedTorsions>
[ 8833 2752 2751 2750 ] final  -92.65 input   60.00 | X-H torsion
[ 6906  969  968  965 ] final -179.89 input   59.99 | X-H torsion
[ 6910  975  974  971 ] final  -12.12 input   60.00 | X-H torsion
[ 6897  962  961  958 ] final   71.11 input   60.00 | X-H torsion
[ 9084 2997 2996 2994 ] final  -38.60 input   60.00 | X-H torsion
[ 7406 1497 1496 1493 ] final  170.76 input   60.00 | X-H torsion
[ 7140 1220 1219 1216 ] final  115.27 input   60.00 | X-H torsion
[ 6926  995  994  992 ] final   25.13 input   60.0

> <Gold.Goldscore.Constraint.Score>
0.0

> <Gold.Id.Protein>
1ZXM|1ZXM_protein|mol2

> <Gold.Protein.RotatedAtoms>
   40.6750    3.3830   41.8637 H   0  0  0  0  0  0  0  0  0  0  0  0  # atno 6897 bound_to 962 
   42.5663   -2.5035   38.2571 H   0  0  0  0  0  0  0  0  0  0  0  0  # atno 6906 bound_to 969 
   38.8111   -4.3840   40.0676 H   0  0  0  0  0  0  0  0  0  0  0  0  # atno 6910 bound_to 975 
   45.8911    1.1244   38.6740 H   0  0  0  0  0  0  0  0  0  0  0  0  # atno 6926 bound_to 995 
   28.0475    0.1168   43.0607 H   0  0  0  0  0  0  0  0  0  0  0  0  # atno 7140 bound_to 1220
   28.2838   -0.9017   41.0

> <Gold.Version>
5.3.0

> <Gold.Goldscore.Internal.Correction>
-0.0166

> <Gold.Goldscore.Internal.Vdw>
-1.3472

> <Gold.Goldscore.Internal.Vdw.Weighted>
-1.3472

> <Gold.Goldscore.External.HBond.Weighted>
1.4847

> <Gold.Goldscore.External.Vdw.Weighted>
72.2447

> <Gold.Goldscore.Internal.HBond.Weighted>
0.0

> <Gold.Goldscore.Hbonds>
donor molecule, donor type, donor heavy atom, donor atom, acceptor molecule, acceptor atom, score
      L1  H     1    27       P1   757  0.74

> <Gold.Goldscore.External.Vdw>
52.5416

> <Gold.Goldscore.Internal.Torsion>
-4.6232

> <Gold.Goldscore.Internal.Correction.Weighted>
-0.0166

> <Gold.Version>
5.3.0

> <Gold.Id.Protein>
1ZXM|1ZXM_protein|mol2

> <Gold.ASP.Fitness>
27.0104

> <Gold.ASP.ASP>
29.4520

> <Gold.ASP.Map>
-147.2600

> <Gold.ASP.DEClash>
1.6132

> <Gold.ASP.DEInternal>
0.8284

> <Gold.ASP.Internal.Correction>
0.1091

> <Gold.Protein.RotatedTorsions>
[ 8924 2752 2751 2750 ] final  -85.77 input   60.00 | X-H torsion
[ 6908  969  968  965 ] final -100.62 input   59.99 | X-H torsion
[ 6912  975  974  971 ] final  -90.46 input   60.00 | X-H torsion
[ 6899  962  961  958 ] final  100.04 input   60.00 | X-H torsion
[ 9165 2997 2996 2994 ] final -178.47 input   60.00 | X-H torsion
[ 7410 1497 1496 1493 ] final  170.83 input   60.00 | X-H torsion
[ 7137 1220 1219 1216 ] final -175.99 input   60.00 | X-H torsion
[ 6928  995  994  992 ] final   93.91 input   60.00 | X-H torsion

> <Gold.Protein.ActiveResidues>
 GLU87   ILE88   VAL90   ASN91   ALA92   ASP94   ASN95   ARG98   ILE118  ASN120 
 LYS123  GLY124  ILE125  ILE141  PHE142  THR147  SER148  SER149  ASN150  TYR151 
 GLY160  GLY161  ARG162  ASN163  GLY164  TYR165  GLY166  ALA167  LYS168  LEU169 
 THR181  THR215  ILE217  ILE317  GLN376  LYS378  ILE33   TYR34   MG903  

> <Gold.Protein.RotatedAtoms>
   40.4163    3.5246   42.2268 H   0  0  0  0  0  0  0  0  0  0  0  0  # atno 6899 bound_to 962 
   42.5682   -3.1831   39.2393 H   0  0  0  0  0  0  0  0  0  0  0  0  # atno 6908 bound_to 969 
   37.8756   -3.8906   40.5967 H   0  0  0  0  0  0  0  0  0  0  0  0  # atno 6912 bound_to 975 
   45.1426    1.2989   39.4006 H   0  0  0  0  0  0  0  0  0  0  0  0  # atno 6928 bound_to 995 
   28.6073   -0.0102   43.9482 H   0  0  0  0  0  0  0  0  0  0  0  0  # atno 7137 bound_to 1220
   28.2844   -0.9008   41.0588 H   0  0  0  0  0  0  0  0  0  0  0  0  # atno 7410 bound_to 1497
   43.7871   -1.1155   30.4807 H   0  0  0  0  0  0  0  0  0  0  0  0  # atno 8924 bound_to 2752
   43.9412    0.0435   29.3058 H   0  0  0  0  0  0  0  0  0  0  0  0  # atno 8925 bound_to 2752
   43.2862    0.4365   30.7768 H   0  0  0  0  0  0  0  0  0  0  0  0  # atno 8926 bound_to 2752
   34.0638   -4.7793   45.5225 H   0  0  0  0  0  0  0  0  0  0  0  0  # atno 9165 bound_to 2997
   42.0319   -2.1673   38.0866 LP  0  0  0  0  0  0  0  0  0  0  0  0  # atno 11896 bound_to 969 
   41.0478   -2.6077   39.3131 LP  0  0  0  0  0  0  0  0  0  0  0  0  # atno 11897 bound_to 969 
   37.4519   -5.4557   40.7349 LP  0  0  0  0  0  0  0  0  0  0  0  0  # atno 11898 bound_to 975 
   38.8546   -5.0480   40.0050 LP  0  0  0  0  0  0  0  0  0  0  0  0  # atno 11899 bound_to 975 
   41.8167    4.0177   41.5607 LP  0  0  0  0  0  0  0  0  0  0  0  0  # atno 11904 bound_to 962 
   41.2133    4.7910   42.8663 LP  0  0  0  0  0  0  0  0  0  0  0  0  # atno 11905 bound_to 962 
   34.7396   -4.9754   44.0553 LP  0  0  0  0  0  0  0  0  0  0  0  0  # atno 11912 bound_to 2997
   33.9843   -3.5767   44.4291 LP  0  0  0  0  0  0  0  0  0  0  0  0  # atno 11913 bound_to 2997
   26.7232   -1.0261   41.5002 LP  0  0  0  0  0  0  0  0  0  0  0  0  # atno 11922 bound_to 1497
   27.6313    0.2172   42.0443 LP  0  0  0  0  0  0  0  0  0  0  0  0  # atno 11923 bound_to 1497
   27.2355    0.0835   43.0779 LP  0  0  0  0  0  0  0  0  0  0  0  0  # atno 11930 bound_to 1220
   27.1682   -0.1843   44.6874 LP  0  0  0  0  0  0  0  0  0  0  0  0  # atno 11931 bound_to 1220

$$$$
****|SGG-4|sdf|1|dock34
  -GOLD-   9 72311463D 1   1.00000     0.00000

 46 48  0  0  0  0  0  0  0  0  1 V2000
   36.6891   -4.9567   37.7429 S   0  0  0  0  0  0  0  0  0  0  0  0
   35.2667   -5.7149   38.3375 C   0  0  0  0  0  0  0  0  0  0  0  0
   34.1468   -5.0550   38.1364 N   0  0  0  0  0  0  0  0  0  0  0  0
   34.4170   -3.8753   37.4723 C   0  0  0  0  0  0  0  0  0  0  0  0
   35.7449   -3.6430   37.1680 C   0  0  0  0  0  0  0  0  0  0  0  0
   36.3824   -2.4702   36.4956 C   0  0  0  0  0  0  0  0  0  0  0  0
   37.6888   -1.7454   37.5386 S   0  0  0  0  0  0  0  0  0  0  0  0
   36.6840   -0.7715   38.6026 C   0  0  0  0  0  0  0  0  0  0  0  0
   36.8056    0.6092   38.5640 N   0  0  0  0  0  0  0  0  0  0  0  0
   36.0303    1.3975   39.4053 C   0  0  0  0  0  0  0  0  0  0  0  0
   36.1378    2.7895   39.3654 O   0  0  0  0  0  0  0  0  0  0  0  0
   35.1861    0.8129   40.2610 N   0  0  0  0  0  0  0  0  0  0  0  0
   35.1322   -0.5244   40.2442 C   0  0  0  0  0  0  0  0  0  0  0  0
   34.0567   -1.2865   41.4298 S   0  0  0  0  0  0  0  0  0  0  0  0
   33.0369   -2.1880   40.2348 C   0  0  0  0  0  0  0  0  0  0  0  0
   32.3618   -1.2687   39.2490 C   0  0  0  0  0  0  0  0  0  0  0  0
   32.9883   -0.0942   38.8158 C   0  0  0  0  0  0  0  0  0  0  0  0
   32.3696    0.7388   37.8782 C   0  0  0  0  0  0  0  0  0  0  0  0
   31.1032    0.4260   37.3646 C   0  0  0  0  0  0  0  0  0  0  0  0
   30.4743   -0.7455   37.8100 C   0  0  0  0  0  0  0  0  0  0  0  0
   31.0936   -1.5812   38.7426 C   0  0  0  0  0  0  0  0  0  0  0  0
   30.5793   -2.4826   39.0699 H   0  0  0  0  0  0  0  0  0  0  0  0
   29.4932   -1.0218   37.4293 H   0  0  0  0  0  0  0  0  0  0  0  0
   30.4167    1.2901   36.3211 C   0  0  0  0  0  0  0  0  0  0  0  0
   31.2982    2.4856   35.9533 C   0  0  0  0  0  0  0  0  0  0  0  0
   31.4631    3.1464   36.8115 H   0  0  0  0  0  0  0  0  0  0  0  0
   32.2794    2.1538   35.5953 H   0  0  0  0  0  0  0  0  0  0  0  0
   30.8350    3.0772   35.1565 H   0  0  0  0  0  0  0  0  0  0  0  0
   29.0217    1.7557   36.7470 C   0  0  0  0  0  0  0  0  0  0  0  0
   29.0619    2.5063   37.5436 H   0  0  0  0  0  0  0  0  0  0  0  0
   28.4193    0.9140   37.1055 H   0  0  0  0  0  0  0  0  0  0  0  0
   28.4954    2.2078   35.8991 H   0  0  0  0  0  0  0  0  0  0  0  0
   30.2788    0.6876   35.4130 H   0  0  0  0  0  0  0  0  0  0  0  0
   32.8957    1.6317   37.5496 H   0  0  0  0  0  0  0  0  0  0  0  0
   33.9691    0.1792   39.1988 H   0  0  0  0  0  0  0  0  0  0  0  0
   32.2662   -2.7680   40.7572 H   0  0  0  0  0  0  0  0  0  0  0  0
   33.6651   -2.9117   39.7020 H   0  0  0  0  0  0  0  0  0  0  0  0
   35.8377   -1.3458   39.4575 N   0  0  0  0  0  0  0  0  0  0  0  0
   37.4597    1.0329   37.9211 H   0  0  0  0  0  0  0  0  0  0  0  0
   36.8244   -2.8020   35.5486 H   0  0  0  0  0  0  0  0  0  0  0  0
   35.6388   -1.6988   36.2676 H   0  0  0  0  0  0  0  0  0  0  0  0
   33.5947   -3.2117   37.2315 H   0  0  0  0  0  0  0  0  0  0  0  0
   35.3556   -7.0225   39.0415 C   0  0  0  0  0  0  0  0  0  0  0  0
   35.8568   -7.7625   38.4091 H   0  0  0  0  0  0  0  0  0  0  0  0
   34.3535   -7.3965   39.2740 H   0  0  0  0  0  0  0  0  0  0  0  0
   35.9236   -6.9380   39.9735 H   0  0  0  0  0  0  0  0  0  0  0  0
  1  2  1  0  0  0  0
  1  5  1  0  0  0  0
  2  3  2  0  0  0  0
  2 43  1  0  0  0  0
  3  4  1  0  0  0  0
  4  5  2  0  0  0  0
  4 42  1  0  0  0  0
  5  6  1  0  0  0  0
  6  7  1  0  0  0  0
  6 40  1  0  0  0  0
  6 41  1  0  0  0  0
  7  8  1  0  0  0  0
  8  9  1  0  0  0  0
  8 38  2  0  0  0  0
  9 10  1  0  0  0  0
  9 39  1  0  0  0  0
 10 11  2  0  0  0  0
 10 12  1  0  0  0  0
 12 13  2  0  0  0  0
 13 14  1  0  0  0  0
 13 38  1  0  0  0  0
 14 15  1  0  0  0  0
 15 16  1  0  0  0  0
 15 36  1  0  0  0  0
 15 37  1  0  0  0  0
 16 17  1  0  0  0  0
 16 21  2  0  0  0  0
 17 18  2  0  0  0  0
 17 35  1  0  0  0  0
 18 19  1  0  0  0  0
 18 34  1  0  0  0  0
 19 20  2  0  0  0  0
 19 24  1  0  0  0  0
 20 21  1  0  0  0  0
 20 23  1  0  0  0  0
 21 22  1  0  0  0  0
 24 25  1  0  0  0  0
 24 29  1  0  0  0  0
 24 33  1  0  0  0  0
 25 26  1  0  0  0  0
 25 27  1  0  0  0  0
 25 28  1  0  0  0  0
 29 30  1  0  0  0  0
 29 31  1  0  0  0  0
 29 32  1  0  0  0  0
 43 44  1  0  0  0  0
 43 45  1  0  0  0  0
 43 46  1  0  0  0  0
M  END
> <Gold.Goldscore.Fitness>
67.7756

> <Gold.Goldscore.External.HBond>
1.4847

> <Gold.Protein.ActiveResidues>
 GLU87   ILE88   VAL90   ASN91   ALA92   ASP94   ASN95   ARG98   ILE118  ASN120 
 LYS123  GLY124  ILE125  ILE141  PHE142  THR147  SER148  SER149  ASN150  TYR151 
 GLY160  GLY161  ARG162  ASN163  GLY164  TYR165  GLY166  ALA167  LYS168  LEU169 
 THR181  THR215  ILE217  ILE317  GLN376  LYS378  ILE33   TYR34   MG903  

> <Gold.Goldscore.Internal.HBond>
0.0

> <Gold.Goldscore.Internal.Torsion.Weighted>
-4.6232

> <Gold.Protein.RotatedTorsions>
[ 8833 2752 2751 2750 ] final  -92.65 input   60.00 | X-H torsion
[ 6906  969  968  965 ] final -179.89 input   59.99 | X-H torsion
[ 6910  975  974  971 ] final  -12.12 input   60.00 | X-H torsion
[ 6897  962  961  958 ] final   71.11 input   60.00 | X-H torsion
[ 9084 2997 2996 2994 ] final  -38.60 input   60.00 | X-H torsion
[ 7406 1497 1496 1493 ] final  170.76 input   60.00 | X-H torsion
[ 7140 1220 1219 1216 ] final  115.27 input   60.00 | X-H torsion
[ 6926  995  994  992 ] final   25.13 input   60.0

> <Gold.Goldscore.Constraint.Score>
0.0

> <Gold.Id.Protein>
1ZXM|1ZXM_protein|mol2

> <Gold.Protein.RotatedAtoms>
   40.6750    3.3830   41.8637 H   0  0  0  0  0  0  0  0  0  0  0  0  # atno 6897 bound_to 962 
   42.5663   -2.5035   38.2571 H   0  0  0  0  0  0  0  0  0  0  0  0  # atno 6906 bound_to 969 
   38.8111   -4.3840   40.0676 H   0  0  0  0  0  0  0  0  0  0  0  0  # atno 6910 bound_to 975 
   45.8911    1.1244   38.6740 H   0  0  0  0  0  0  0  0  0  0  0  0  # atno 6926 bound_to 995 
   28.0475    0.1168   43.0607 H   0  0  0  0  0  0  0  0  0  0  0  0  # atno 7140 bound_to 1220
   28.2838   -0.9017   41.0

> <Gold.Version>
5.3.0

> <Gold.Goldscore.Internal.Correction>
-0.0166

> <Gold.Goldscore.Internal.Vdw>
-1.3472

> <Gold.Goldscore.Internal.Vdw.Weighted>
-1.3472

> <Gold.Goldscore.External.HBond.Weighted>
1.4847

> <Gold.Goldscore.External.Vdw.Weighted>
72.2447

> <Gold.Goldscore.Internal.HBond.Weighted>
0.0

> <Gold.Goldscore.Hbonds>
donor molecule, donor type, donor heavy atom, donor atom, acceptor molecule, acceptor atom, score
      L1  H     1    27       P1   757  0.74

> <Gold.Goldscore.External.Vdw>
52.5416

> <Gold.Goldscore.Internal.Torsion>
-4.6232

> <Gold.Goldscore.Internal.Correction.Weighted>
-0.0166

> <Gold.Version>
5.3.0

> <Gold.Id.Protein>
1ZXM|1ZXM_protein|mol2

> <Gold.ASP.Fitness>
27.0035

> <Gold.ASP.ASP>
31.6340

> <Gold.ASP.Map>
-158.1700

> <Gold.ASP.DEClash>
1.1530

> <Gold.ASP.DEInternal>
3.4774

> <Gold.ASP.Internal.Correction>
0.1091

> <Gold.Protein.RotatedTorsions>
[ 8924 2752 2751 2750 ] final   71.20 input   60.00 | X-H torsion
[ 6908  969  968  965 ] final -107.07 input   59.99 | X-H torsion
[ 6912  975  974  971 ] final    4.65 input   60.00 | X-H torsion
[ 6899  962  961  958 ] final  -79.80 input   60.00 | X-H torsion
[ 9165 2997 2996 2994 ] final  154.90 input   60.00 | X-H torsion
[ 7410 1497 1496 1493 ] final  125.21 input   60.00 | X-H torsion
[ 7137 1220 1219 1216 ] final   56.01 input   60.00 | X-H torsion
[ 6928  995  994  992 ] final  -91.95 input   60.00 | X-H torsion

> <Gold.Protein.ActiveResidues>
 GLU87   ILE88   VAL90   ASN91   ALA92   ASP94   ASN95   ARG98   ILE118  ASN120 
 LYS123  GLY124  ILE125  ILE141  PHE142  THR147  SER148  SER149  ASN150  TYR151 
 GLY160  GLY161  ARG162  ASN163  GLY164  TYR165  GLY166  ALA167  LYS168  LEU169 
 THR181  THR215  ILE217  ILE317  GLN376  LYS378  ILE33   TYR34   MG903  

> <Gold.Protein.RotatedAtoms>
   41.8803    4.6917   42.2088 H   0  0  0  0  0  0  0  0  0  0  0  0  # atno 6899 bound_to 962 
   42.6272   -3.1514   39.1581 H   0  0  0  0  0  0  0  0  0  0  0  0  # atno 6908 bound_to 969 
   38.8785   -4.6438   40.0171 H   0  0  0  0  0  0  0  0  0  0  0  0  # atno 6912 bound_to 975 
   46.9594    1.4617   39.8123 H   0  0  0  0  0  0  0  0  0  0  0  0  # atno 6928 bound_to 995 
   27.1275    0.0700   43.1511 H   0  0  0  0  0  0  0  0  0  0  0  0  # atno 7137 bound_to 1220
   27.6910   -1.3108   40.9781 H   0  0  0  0  0  0  0  0  0  0  0  0  # atno 7410 bound_to 1497
   43.7131    0.5310   29.5860 H   0  0  0  0  0  0  0  0  0  0  0  0  # atno 8924 bound_to 2752
   43.3100   -0.0962   31.0663 H   0  0  0  0  0  0  0  0  0  0  0  0  # atno 8925 bound_to 2752
   43.9913   -1.0702   29.9111 H   0  0  0  0  0  0  0  0  0  0  0  0  # atno 8926 bound_to 2752
   34.2791   -5.1031   45.3362 H   0  0  0  0  0  0  0  0  0  0  0  0  # atno 9165 bound_to 2997
   41.9321   -2.1328   38.0963 LP  0  0  0  0  0  0  0  0  0  0  0  0  # atno 11896 bound_to 969 
   41.0881   -2.6742   39.3852 LP  0  0  0  0  0  0  0  0  0  0  0  0  # atno 11897 bound_to 969 
   37.5497   -4.0679   40.7591 LP  0  0  0  0  0  0  0  0  0  0  0  0  # atno 11898 bound_to 975 
   37.7468   -5.6772   40.5645 LP  0  0  0  0  0  0  0  0  0  0  0  0  # atno 11899 bound_to 975 
   40.4779    4.2047   42.8753 LP  0  0  0  0  0  0  0  0  0  0  0  0  # atno 11904 bound_to 962 
   41.0778    3.4286   41.5698 LP  0  0  0  0  0  0  0  0  0  0  0  0  # atno 11905 bound_to 962 
   34.6692   -4.6071   43.8363 LP  0  0  0  0  0  0  0  0  0  0  0  0  # atno 11912 bound_to 2997
   33.8379   -3.6189   44.8357 LP  0  0  0  0  0  0  0  0  0  0  0  0  # atno 11913 bound_to 2997
   26.6992   -0.4266   41.9175 LP  0  0  0  0  0  0  0  0  0  0  0  0  # atno 11922 bound_to 1497
   28.2529    0.0306   41.7082 LP  0  0  0  0  0  0  0  0  0  0  0  0  # atno 11923 bound_to 1497
   27.2838   -0.1906   44.7497 LP  0  0  0  0  0  0  0  0  0  0  0  0  # atno 11930 bound_to 1220
   28.6103    0.0090   43.8185 LP  0  0  0  0  0  0  0  0  0  0  0  0  # atno 11931 bound_to 1220

$$$$
****|SGG-4|sdf|1|dock26
  -GOLD-   9 72311453D 1   1.00000     0.00000

 46 48  0  0  0  0  0  0  0  0  1 V2000
   37.4757    0.6790   37.9800 S   0  0  0  0  0  0  0  0  0  0  0  0
   38.5231   -0.4416   37.2063 C   0  0  0  0  0  0  0  0  0  0  0  0
   38.0371   -1.6531   37.0454 N   0  0  0  0  0  0  0  0  0  0  0  0
   36.7582   -1.7116   37.5618 C   0  0  0  0  0  0  0  0  0  0  0  0
   36.2744   -0.5403   38.1131 C   0  0  0  0  0  0  0  0  0  0  0  0
   34.9652   -0.2646   38.7793 C   0  0  0  0  0  0  0  0  0  0  0  0
   34.2171    1.2717   38.1467 S   0  0  0  0  0  0  0  0  0  0  0  0
   32.5551    0.7226   37.9835 C   0  0  0  0  0  0  0  0  0  0  0  0
   31.6619    1.4917   37.2533 N   0  0  0  0  0  0  0  0  0  0  0  0
   30.3405    1.0830   37.1221 C   0  0  0  0  0  0  0  0  0  0  0  0
   29.4365    1.8454   36.3789 O   0  0  0  0  0  0  0  0  0  0  0  0
   29.9378   -0.0422   37.7208 N   0  0  0  0  0  0  0  0  0  0  0  0
   30.8569   -0.7246   38.4145 C   0  0  0  0  0  0  0  0  0  0  0  0
   30.2920   -2.1788   39.2565 S   0  0  0  0  0  0  0  0  0  0  0  0
   31.6976   -2.3209   40.3900 C   0  0  0  0  0  0  0  0  0  0  0  0
   32.7514   -3.2705   39.8797 C   0  0  0  0  0  0  0  0  0  0  0  0
   32.7688   -3.6720   38.5387 C   0  0  0  0  0  0  0  0  0  0  0  0
   33.7670   -4.5291   38.0648 C   0  0  0  0  0  0  0  0  0  0  0  0
   34.7610   -5.0183   38.9239 C   0  0  0  0  0  0  0  0  0  0  0  0
   34.7331   -4.6229   40.2689 C   0  0  0  0  0  0  0  0  0  0  0  0
   33.7395   -3.7623   40.7423 C   0  0  0  0  0  0  0  0  0  0  0  0
   33.7438   -3.4748   41.7918 H   0  0  0  0  0  0  0  0  0  0  0  0
   35.4914   -4.9794   40.9628 H   0  0  0  0  0  0  0  0  0  0  0  0
   35.8786   -5.9240   38.4362 C   0  0  0  0  0  0  0  0  0  0  0  0
   36.6606   -5.2478   37.3080 C   0  0  0  0  0  0  0  0  0  0  0  0
   36.0308   -5.0686   36.4296 H   0  0  0  0  0  0  0  0  0  0  0  0
   37.0610   -4.2810   37.6332 H   0  0  0  0  0  0  0  0  0  0  0  0
   37.5055   -5.8707   36.9955 H   0  0  0  0  0  0  0  0  0  0  0  0
   35.3872   -7.3075   38.0018 C   0  0  0  0  0  0  0  0  0  0  0  0
   34.8210   -7.2695   37.0650 H   0  0  0  0  0  0  0  0  0  0  0  0
   34.7440   -7.7540   38.7679 H   0  0  0  0  0  0  0  0  0  0  0  0
   36.2365   -7.9810   37.8426 H   0  0  0  0  0  0  0  0  0  0  0  0
   36.5748   -6.0897   39.2696 H   0  0  0  0  0  0  0  0  0  0  0  0
   33.7603   -4.8025   37.0125 H   0  0  0  0  0  0  0  0  0  0  0  0
   32.0087   -3.3137   37.8477 H   0  0  0  0  0  0  0  0  0  0  0  0
   31.3571   -2.6709   41.3723 H   0  0  0  0  0  0  0  0  0  0  0  0
   32.1335   -1.3270   40.5462 H   0  0  0  0  0  0  0  0  0  0  0  0
   32.1452   -0.3994   38.5750 N   0  0  0  0  0  0  0  0  0  0  0  0
   31.9807    2.3470   36.8200 H   0  0  0  0  0  0  0  0  0  0  0  0
   34.2842   -1.1010   38.5820 H   0  0  0  0  0  0  0  0  0  0  0  0
   35.0889   -0.1806   39.8645 H   0  0  0  0  0  0  0  0  0  0  0  0
   36.2161   -2.6486   37.5089 H   0  0  0  0  0  0  0  0  0  0  0  0
   39.8861   -0.0210   36.7832 C   0  0  0  0  0  0  0  0  0  0  0  0
   39.8282    0.8511   36.1238 H   0  0  0  0  0  0  0  0  0  0  0  0
   40.3790   -0.8300   36.2348 H   0  0  0  0  0  0  0  0  0  0  0  0
   40.5070    0.2493   37.6432 H   0  0  0  0  0  0  0  0  0  0  0  0
  1  2  1  0  0  0  0
  1  5  1  0  0  0  0
  2  3  2  0  0  0  0
  2 43  1  0  0  0  0
  3  4  1  0  0  0  0
  4  5  2  0  0  0  0
  4 42  1  0  0  0  0
  5  6  1  0  0  0  0
  6  7  1  0  0  0  0
  6 40  1  0  0  0  0
  6 41  1  0  0  0  0
  7  8  1  0  0  0  0
  8  9  1  0  0  0  0
  8 38  2  0  0  0  0
  9 10  1  0  0  0  0
  9 39  1  0  0  0  0
 10 11  2  0  0  0  0
 10 12  1  0  0  0  0
 12 13  2  0  0  0  0
 13 14  1  0  0  0  0
 13 38  1  0  0  0  0
 14 15  1  0  0  0  0
 15 16  1  0  0  0  0
 15 36  1  0  0  0  0
 15 37  1  0  0  0  0
 16 17  1  0  0  0  0
 16 21  2  0  0  0  0
 17 18  2  0  0  0  0
 17 35  1  0  0  0  0
 18 19  1  0  0  0  0
 18 34  1  0  0  0  0
 19 20  2  0  0  0  0
 19 24  1  0  0  0  0
 20 21  1  0  0  0  0
 20 23  1  0  0  0  0
 21 22  1  0  0  0  0
 24 25  1  0  0  0  0
 24 29  1  0  0  0  0
 24 33  1  0  0  0  0
 25 26  1  0  0  0  0
 25 27  1  0  0  0  0
 25 28  1  0  0  0  0
 29 30  1  0  0  0  0
 29 31  1  0  0  0  0
 29 32  1  0  0  0  0
 43 44  1  0  0  0  0
 43 45  1  0  0  0  0
 43 46  1  0  0  0  0
M  END
> <Gold.Goldscore.Fitness>
67.7756

> <Gold.Goldscore.External.HBond>
1.4847

> <Gold.Protein.ActiveResidues>
 GLU87   ILE88   VAL90   ASN91   ALA92   ASP94   ASN95   ARG98   ILE118  ASN120 
 LYS123  GLY124  ILE125  ILE141  PHE142  THR147  SER148  SER149  ASN150  TYR151 
 GLY160  GLY161  ARG162  ASN163  GLY164  TYR165  GLY166  ALA167  LYS168  LEU169 
 THR181  THR215  ILE217  ILE317  GLN376  LYS378  ILE33   TYR34   MG903  

> <Gold.Goldscore.Internal.HBond>
0.0

> <Gold.Goldscore.Internal.Torsion.Weighted>
-4.6232

> <Gold.Protein.RotatedTorsions>
[ 8833 2752 2751 2750 ] final  -92.65 input   60.00 | X-H torsion
[ 6906  969  968  965 ] final -179.89 input   59.99 | X-H torsion
[ 6910  975  974  971 ] final  -12.12 input   60.00 | X-H torsion
[ 6897  962  961  958 ] final   71.11 input   60.00 | X-H torsion
[ 9084 2997 2996 2994 ] final  -38.60 input   60.00 | X-H torsion
[ 7406 1497 1496 1493 ] final  170.76 input   60.00 | X-H torsion
[ 7140 1220 1219 1216 ] final  115.27 input   60.00 | X-H torsion
[ 6926  995  994  992 ] final   25.13 input   60.0

> <Gold.Goldscore.Constraint.Score>
0.0

> <Gold.Id.Protein>
1ZXM|1ZXM_protein|mol2

> <Gold.Protein.RotatedAtoms>
   40.6750    3.3830   41.8637 H   0  0  0  0  0  0  0  0  0  0  0  0  # atno 6897 bound_to 962 
   42.5663   -2.5035   38.2571 H   0  0  0  0  0  0  0  0  0  0  0  0  # atno 6906 bound_to 969 
   38.8111   -4.3840   40.0676 H   0  0  0  0  0  0  0  0  0  0  0  0  # atno 6910 bound_to 975 
   45.8911    1.1244   38.6740 H   0  0  0  0  0  0  0  0  0  0  0  0  # atno 6926 bound_to 995 
   28.0475    0.1168   43.0607 H   0  0  0  0  0  0  0  0  0  0  0  0  # atno 7140 bound_to 1220
   28.2838   -0.9017   41.0

> <Gold.Version>
5.3.0

> <Gold.Goldscore.Internal.Correction>
-0.0166

> <Gold.Goldscore.Internal.Vdw>
-1.3472

> <Gold.Goldscore.Internal.Vdw.Weighted>
-1.3472

> <Gold.Goldscore.External.HBond.Weighted>
1.4847

> <Gold.Goldscore.External.Vdw.Weighted>
72.2447

> <Gold.Goldscore.Internal.HBond.Weighted>
0.0

> <Gold.Goldscore.Hbonds>
donor molecule, donor type, donor heavy atom, donor atom, acceptor molecule, acceptor atom, score
      L1  H     1    27       P1   757  0.74

> <Gold.Goldscore.External.Vdw>
52.5416

> <Gold.Goldscore.Internal.Torsion>
-4.6232

> <Gold.Goldscore.Internal.Correction.Weighted>
-0.0166

> <Gold.Version>
5.3.0

> <Gold.Id.Protein>
1ZXM|1ZXM_protein|mol2

> <Gold.ASP.Fitness>
26.9479

> <Gold.ASP.ASP>
28.7420

> <Gold.ASP.Map>
-143.7100

> <Gold.ASP.DEClash>
0.5685

> <Gold.ASP.DEInternal>
1.2256

> <Gold.ASP.Internal.Correction>
0.1091

> <Gold.Protein.RotatedTorsions>
[ 8924 2752 2751 2750 ] final  -34.38 input   60.00 | X-H torsion
[ 6908  969  968  965 ] final -115.95 input   59.99 | X-H torsion
[ 6912  975  974  971 ] final   79.85 input   60.00 | X-H torsion
[ 6899  962  961  958 ] final   72.97 input   60.00 | X-H torsion
[ 9165 2997 2996 2994 ] final   43.09 input   60.00 | X-H torsion
[ 7410 1497 1496 1493 ] final    8.23 input   60.00 | X-H torsion
[ 7137 1220 1219 1216 ] final  166.41 input   60.00 | X-H torsion
[ 6928  995  994  992 ] final  133.87 input   60.00 | X-H torsion

> <Gold.Protein.ActiveResidues>
 GLU87   ILE88   VAL90   ASN91   ALA92   ASP94   ASN95   ARG98   ILE118  ASN120 
 LYS123  GLY124  ILE125  ILE141  PHE142  THR147  SER148  SER149  ASN150  TYR151 
 GLY160  GLY161  ARG162  ASN163  GLY164  TYR165  GLY166  ALA167  LYS168  LEU169 
 THR181  THR215  ILE217  ILE317  GLN376  LYS378  ILE33   TYR34   MG903  

> <Gold.Protein.RotatedAtoms>
   40.6539    3.3868   41.8853 H   0  0  0  0  0  0  0  0  0  0  0  0  # atno 6899 bound_to 962 
   42.6930   -3.0975   39.0407 H   0  0  0  0  0  0  0  0  0  0  0  0  # atno 6908 bound_to 969 
   38.3791   -5.6492   40.2295 H   0  0  0  0  0  0  0  0  0  0  0  0  # atno 6912 bound_to 975 
   45.2460    1.4659   40.0095 H   0  0  0  0  0  0  0  0  0  0  0  0  # atno 6928 bound_to 995 
   28.5752    0.0351   43.6672 H   0  0  0  0  0  0  0  0  0  0  0  0  # atno 7137 bound_to 1220
   26.6889   -0.4673   41.8903 H   0  0  0  0  0  0  0  0  0  0  0  0  # atno 7410 bound_to 1497
   44.0392   -0.9530   29.7070 H   0  0  0  0  0  0  0  0  0  0  0  0  # atno 8924 bound_to 2752
   43.6138    0.6477   29.7710 H   0  0  0  0  0  0  0  0  0  0  0  0  # atno 8925 bound_to 2752
   43.3615   -0.3301   31.0853 H   0  0  0  0  0  0  0  0  0  0  0  0  # atno 8926 bound_to 2752
   34.7002   -4.7251   43.8925 H   0  0  0  0  0  0  0  0  0  0  0  0  # atno 9165 bound_to 2997
   41.7939   -2.0960   38.1259 LP  0  0  0  0  0  0  0  0  0  0  0  0  # atno 11896 bound_to 969 
   41.1600   -2.7653   39.4738 LP  0  0  0  0  0  0  0  0  0  0  0  0  # atno 11897 bound_to 969 
   38.5639   -4.0325   40.2170 LP  0  0  0  0  0  0  0  0  0  0  0  0  # atno 11898 bound_to 975 
   37.2356   -4.7001   40.8926 LP  0  0  0  0  0  0  0  0  0  0  0  0  # atno 11899 bound_to 975 
   41.9544    4.3613   41.8011 LP  0  0  0  0  0  0  0  0  0  0  0  0  # atno 11904 bound_to 962 
   40.8363    4.5861   42.9699 LP  0  0  0  0  0  0  0  0  0  0  0  0  # atno 11905 bound_to 962 
   33.8745   -3.5861   44.7104 LP  0  0  0  0  0  0  0  0  0  0  0  0  # atno 11912 bound_to 2997
   34.2086   -5.0206   45.4154 LP  0  0  0  0  0  0  0  0  0  0  0  0  # atno 11913 bound_to 2997
   28.2217    0.0568   41.7365 LP  0  0  0  0  0  0  0  0  0  0  0  0  # atno 11922 bound_to 1497
   27.7397   -1.3024   40.9704 LP  0  0  0  0  0  0  0  0  0  0  0  0  # atno 11923 bound_to 1497
   27.0036    0.0478   43.2457 LP  0  0  0  0  0  0  0  0  0  0  0  0  # atno 11930 bound_to 1220
   27.4324   -0.1942   44.8026 LP  0  0  0  0  0  0  0  0  0  0  0  0  # atno 11931 bound_to 1220

$$$$
****|SGG-4|sdf|1|dock5
  -GOLD-   9 72311443D 1   1.00000     0.00000

 46 48  0  0  0  0  0  0  0  0  1 V2000
   36.1280    0.0239   37.7955 S   0  0  0  0  0  0  0  0  0  0  0  0
   36.6210    0.5497   39.3550 C   0  0  0  0  0  0  0  0  0  0  0  0
   37.4858   -0.2288   39.9681 N   0  0  0  0  0  0  0  0  0  0  0  0
   37.7849   -1.3114   39.1654 C   0  0  0  0  0  0  0  0  0  0  0  0
   37.1462   -1.3509   37.9405 C   0  0  0  0  0  0  0  0  0  0  0  0
   37.2127   -2.3798   36.8584 C   0  0  0  0  0  0  0  0  0  0  0  0
   35.5933   -3.1771   36.6099 S   0  0  0  0  0  0  0  0  0  0  0  0
   35.2937   -3.7128   38.2571 C   0  0  0  0  0  0  0  0  0  0  0  0
   35.9019   -4.8748   38.7071 N   0  0  0  0  0  0  0  0  0  0  0  0
   35.6690   -5.3232   40.0014 C   0  0  0  0  0  0  0  0  0  0  0  0
   36.2863   -6.4864   40.4669 O   0  0  0  0  0  0  0  0  0  0  0  0
   34.8414   -4.6374   40.7958 N   0  0  0  0  0  0  0  0  0  0  0  0
   34.2863   -3.5312   40.2861 C   0  0  0  0  0  0  0  0  0  0  0  0
   33.1408   -2.6694   41.3292 S   0  0  0  0  0  0  0  0  0  0  0  0
   31.6921   -2.8778   40.2622 C   0  0  0  0  0  0  0  0  0  0  0  0
   31.4348   -1.6664   39.4023 C   0  0  0  0  0  0  0  0  0  0  0  0
   30.4683   -1.6954   38.3901 C   0  0  0  0  0  0  0  0  0  0  0  0
   30.2135   -0.5589   37.6161 C   0  0  0  0  0  0  0  0  0  0  0  0
   30.9304    0.6277   37.8246 C   0  0  0  0  0  0  0  0  0  0  0  0
   31.9056    0.6488   38.8319 C   0  0  0  0  0  0  0  0  0  0  0  0
   32.1574   -0.4844   39.6093 C   0  0  0  0  0  0  0  0  0  0  0  0
   32.9217   -0.4371   40.3826 H   0  0  0  0  0  0  0  0  0  0  0  0
   32.4779    1.5539   39.0245 H   0  0  0  0  0  0  0  0  0  0  0  0
   30.6569    1.8899   37.0252 C   0  0  0  0  0  0  0  0  0  0  0  0
   29.6900    1.5959   35.8762 C   0  0  0  0  0  0  0  0  0  0  0  0
   30.1176    0.8871   35.1585 H   0  0  0  0  0  0  0  0  0  0  0  0
   28.7544    1.1660   36.2514 H   0  0  0  0  0  0  0  0  0  0  0  0
   29.4413    2.5150   35.3350 H   0  0  0  0  0  0  0  0  0  0  0  0
   31.9305    2.5610   36.5038 C   0  0  0  0  0  0  0  0  0  0  0  0
   32.4005    1.9863   35.6986 H   0  0  0  0  0  0  0  0  0  0  0  0
   32.6664    2.6834   37.3059 H   0  0  0  0  0  0  0  0  0  0  0  0
   31.7013    3.5551   36.1042 H   0  0  0  0  0  0  0  0  0  0  0  0
   30.1719    2.6185   37.6889 H   0  0  0  0  0  0  0  0  0  0  0  0
   29.4410   -0.6128   36.8530 H   0  0  0  0  0  0  0  0  0  0  0  0
   29.8982   -2.6023   38.2001 H   0  0  0  0  0  0  0  0  0  0  0  0
   30.7997   -3.0715   40.8700 H   0  0  0  0  0  0  0  0  0  0  0  0
   31.8374   -3.7616   39.6297 H   0  0  0  0  0  0  0  0  0  0  0  0
   34.4717   -3.0339   39.0574 N   0  0  0  0  0  0  0  0  0  0  0  0
   36.5129   -5.3882   38.0875 H   0  0  0  0  0  0  0  0  0  0  0  0
   37.5179   -1.8926   35.9247 H   0  0  0  0  0  0  0  0  0  0  0  0
   37.9563   -3.1485   37.0953 H   0  0  0  0  0  0  0  0  0  0  0  0
   38.4863   -2.0532   39.5293 H   0  0  0  0  0  0  0  0  0  0  0  0
   36.0612    1.8011   39.9331 C   0  0  0  0  0  0  0  0  0  0  0  0
   36.2335    2.6441   39.2560 H   0  0  0  0  0  0  0  0  0  0  0  0
   36.5460    2.0272   40.8880 H   0  0  0  0  0  0  0  0  0  0  0  0
   34.9822    1.7186   40.0981 H   0  0  0  0  0  0  0  0  0  0  0  0
  1  2  1  0  0  0  0
  1  5  1  0  0  0  0
  2  3  2  0  0  0  0
  2 43  1  0  0  0  0
  3  4  1  0  0  0  0
  4  5  2  0  0  0  0
  4 42  1  0  0  0  0
  5  6  1  0  0  0  0
  6  7  1  0  0  0  0
  6 40  1  0  0  0  0
  6 41  1  0  0  0  0
  7  8  1  0  0  0  0
  8  9  1  0  0  0  0
  8 38  2  0  0  0  0
  9 10  1  0  0  0  0
  9 39  1  0  0  0  0
 10 11  2  0  0  0  0
 10 12  1  0  0  0  0
 12 13  2  0  0  0  0
 13 14  1  0  0  0  0
 13 38  1  0  0  0  0
 14 15  1  0  0  0  0
 15 16  1  0  0  0  0
 15 36  1  0  0  0  0
 15 37  1  0  0  0  0
 16 17  1  0  0  0  0
 16 21  2  0  0  0  0
 17 18  2  0  0  0  0
 17 35  1  0  0  0  0
 18 19  1  0  0  0  0
 18 34  1  0  0  0  0
 19 20  2  0  0  0  0
 19 24  1  0  0  0  0
 20 21  1  0  0  0  0
 20 23  1  0  0  0  0
 21 22  1  0  0  0  0
 24 25  1  0  0  0  0
 24 29  1  0  0  0  0
 24 33  1  0  0  0  0
 25 26  1  0  0  0  0
 25 27  1  0  0  0  0
 25 28  1  0  0  0  0
 29 30  1  0  0  0  0
 29 31  1  0  0  0  0
 29 32  1  0  0  0  0
 43 44  1  0  0  0  0
 43 45  1  0  0  0  0
 43 46  1  0  0  0  0
M  END
> <Gold.Goldscore.Fitness>
67.7756

> <Gold.Goldscore.External.HBond>
1.4847

> <Gold.Protein.ActiveResidues>
 GLU87   ILE88   VAL90   ASN91   ALA92   ASP94   ASN95   ARG98   ILE118  ASN120 
 LYS123  GLY124  ILE125  ILE141  PHE142  THR147  SER148  SER149  ASN150  TYR151 
 GLY160  GLY161  ARG162  ASN163  GLY164  TYR165  GLY166  ALA167  LYS168  LEU169 
 THR181  THR215  ILE217  ILE317  GLN376  LYS378  ILE33   TYR34   MG903  

> <Gold.Goldscore.Internal.HBond>
0.0

> <Gold.Goldscore.Internal.Torsion.Weighted>
-4.6232

> <Gold.Protein.RotatedTorsions>
[ 8833 2752 2751 2750 ] final  -92.65 input   60.00 | X-H torsion
[ 6906  969  968  965 ] final -179.89 input   59.99 | X-H torsion
[ 6910  975  974  971 ] final  -12.12 input   60.00 | X-H torsion
[ 6897  962  961  958 ] final   71.11 input   60.00 | X-H torsion
[ 9084 2997 2996 2994 ] final  -38.60 input   60.00 | X-H torsion
[ 7406 1497 1496 1493 ] final  170.76 input   60.00 | X-H torsion
[ 7140 1220 1219 1216 ] final  115.27 input   60.00 | X-H torsion
[ 6926  995  994  992 ] final   25.13 input   60.0

> <Gold.Goldscore.Constraint.Score>
0.0

> <Gold.Id.Protein>
1ZXM|1ZXM_protein|mol2

> <Gold.Protein.RotatedAtoms>
   40.6750    3.3830   41.8637 H   0  0  0  0  0  0  0  0  0  0  0  0  # atno 6897 bound_to 962 
   42.5663   -2.5035   38.2571 H   0  0  0  0  0  0  0  0  0  0  0  0  # atno 6906 bound_to 969 
   38.8111   -4.3840   40.0676 H   0  0  0  0  0  0  0  0  0  0  0  0  # atno 6910 bound_to 975 
   45.8911    1.1244   38.6740 H   0  0  0  0  0  0  0  0  0  0  0  0  # atno 6926 bound_to 995 
   28.0475    0.1168   43.0607 H   0  0  0  0  0  0  0  0  0  0  0  0  # atno 7140 bound_to 1220
   28.2838   -0.9017   41.0

> <Gold.Version>
5.3.0

> <Gold.Goldscore.Internal.Correction>
-0.0166

> <Gold.Goldscore.Internal.Vdw>
-1.3472

> <Gold.Goldscore.Internal.Vdw.Weighted>
-1.3472

> <Gold.Goldscore.External.HBond.Weighted>
1.4847

> <Gold.Goldscore.External.Vdw.Weighted>
72.2447

> <Gold.Goldscore.Internal.HBond.Weighted>
0.0

> <Gold.Goldscore.Hbonds>
donor molecule, donor type, donor heavy atom, donor atom, acceptor molecule, acceptor atom, score
      L1  H     1    27       P1   757  0.74

> <Gold.Goldscore.External.Vdw>
52.5416

> <Gold.Goldscore.Internal.Torsion>
-4.6232

> <Gold.Goldscore.Internal.Correction.Weighted>
-0.0166

> <Gold.Version>
5.3.0

> <Gold.Id.Protein>
1ZXM|1ZXM_protein|mol2

> <Gold.ASP.Fitness>
26.8787

> <Gold.ASP.ASP>
29.2820

> <Gold.ASP.Map>
-146.4100

> <Gold.ASP.DEClash>
1.6830

> <Gold.ASP.DEInternal>
0.7204

> <Gold.ASP.Internal.Correction>
0.1091

> <Gold.Protein.RotatedTorsions>
[ 8924 2752 2751 2750 ] final   31.77 input   60.00 | X-H torsion
[ 6908  969  968  965 ] final  100.93 input   59.99 | X-H torsion
[ 6912  975  974  971 ] final  -71.93 input   60.00 | X-H torsion
[ 6899  962  961  958 ] final  -28.25 input   60.00 | X-H torsion
[ 9165 2997 2996 2994 ] final  -25.67 input   60.00 | X-H torsion
[ 7410 1497 1496 1493 ] final  -51.97 input   60.00 | X-H torsion
[ 7137 1220 1219 1216 ] final  -72.64 input   60.00 | X-H torsion
[ 6928  995  994  992 ] final -128.97 input   60.00 | X-H torsion

> <Gold.Protein.ActiveResidues>
 GLU87   ILE88   VAL90   ASN91   ALA92   ASP94   ASN95   ARG98   ILE118  ASN120 
 LYS123  GLY124  ILE125  ILE141  PHE142  THR147  SER148  SER149  ASN150  TYR151 
 GLY160  GLY161  ARG162  ASN163  GLY164  TYR165  GLY166  ALA167  LYS168  LEU169 
 THR181  THR215  ILE217  ILE317  GLN376  LYS378  ILE33   TYR34   MG903  

> <Gold.Protein.RotatedAtoms>
   41.8726    4.1228   41.6265 H   0  0  0  0  0  0  0  0  0  0  0  0  # atno 6899 bound_to 962 
   41.4562   -2.0667   38.2902 H   0  0  0  0  0  0  0  0  0  0  0  0  # atno 6908 bound_to 969 
   38.1407   -3.8632   40.4560 H   0  0  0  0  0  0  0  0  0  0  0  0  # atno 6912 bound_to 975 
   46.6182    1.5792   40.2847 H   0  0  0  0  0  0  0  0  0  0  0  0  # atno 6928 bound_to 995 
   27.4191   -0.1907   44.7925 H   0  0  0  0  0  0  0  0  0  0  0  0  # atno 7137 bound_to 1220
   27.3606    0.1573   42.0912 H   0  0  0  0  0  0  0  0  0  0  0  0  # atno 7410 bound_to 1497
   43.9534    0.0049   29.2993 H   0  0  0  0  0  0  0  0  0  0  0  0  # atno 8924 bound_to 2752
   43.2902    0.4646   30.7472 H   0  0  0  0  0  0  0  0  0  0  0  0  # atno 8925 bound_to 2752
   43.7708   -1.1049   30.5168 H   0  0  0  0  0  0  0  0  0  0  0  0  # atno 8926 bound_to 2752
   34.2431   -3.7793   44.0125 H   0  0  0  0  0  0  0  0  0  0  0  0  # atno 9165 bound_to 2997
   41.4232   -2.9846   39.6335 LP  0  0  0  0  0  0  0  0  0  0  0  0  # atno 11896 bound_to 969 
   42.7763   -2.9147   38.7220 LP  0  0  0  0  0  0  0  0  0  0  0  0  # atno 11897 bound_to 969 
   37.3034   -5.2080   40.8282 LP  0  0  0  0  0  0  0  0  0  0  0  0  # atno 11898 bound_to 975 
   38.7362   -5.3232   40.0533 LP  0  0  0  0  0  0  0  0  0  0  0  0  # atno 11899 bound_to 975 
   41.0955    4.7426   42.9149 LP  0  0  0  0  0  0  0  0  0  0  0  0  # atno 11904 bound_to 962 
   40.4679    3.4636   42.1167 LP  0  0  0  0  0  0  0  0  0  0  0  0  # atno 11905 bound_to 962 
   33.8562   -4.2912   45.5080 LP  0  0  0  0  0  0  0  0  0  0  0  0  # atno 11912 bound_to 2997
   34.6872   -5.2680   44.4970 LP  0  0  0  0  0  0  0  0  0  0  0  0  # atno 11913 bound_to 2997
   28.4121   -0.6772   41.1715 LP  0  0  0  0  0  0  0  0  0  0  0  0  # atno 11922 bound_to 1497
   26.8727   -1.1974   41.3331 LP  0  0  0  0  0  0  0  0  0  0  0  0  # atno 11923 bound_to 1497
   28.5857    0.0310   43.6800 LP  0  0  0  0  0  0  0  0  0  0  0  0  # atno 11930 bound_to 1220
   27.0147    0.0500   43.2349 LP  0  0  0  0  0  0  0  0  0  0  0  0  # atno 11931 bound_to 1220

$$$$
****|SGG-4|sdf|1|dock25
  -GOLD-   9 72311453D 1   1.00000     0.00000

 46 48  0  0  0  0  0  0  0  0  1 V2000
   36.4103    0.0552   38.3314 S   0  0  0  0  0  0  0  0  0  0  0  0
   37.4537    1.1215   39.1833 C   0  0  0  0  0  0  0  0  0  0  0  0
   38.7402    0.8833   39.0480 N   0  0  0  0  0  0  0  0  0  0  0  0
   38.9251   -0.2074   38.2222 C   0  0  0  0  0  0  0  0  0  0  0  0
   37.7752   -0.7947   37.7295 C   0  0  0  0  0  0  0  0  0  0  0  0
   37.6127   -1.9926   36.8504 C   0  0  0  0  0  0  0  0  0  0  0  0
   35.8704   -2.2222   36.3690 S   0  0  0  0  0  0  0  0  0  0  0  0
   35.3206   -3.1505   37.7569 C   0  0  0  0  0  0  0  0  0  0  0  0
   35.4681   -4.5291   37.7446 N   0  0  0  0  0  0  0  0  0  0  0  0
   35.0290   -5.2834   38.8256 C   0  0  0  0  0  0  0  0  0  0  0  0
   35.1838   -6.6715   38.8269 O   0  0  0  0  0  0  0  0  0  0  0  0
   34.4481   -4.6709   39.8620 N   0  0  0  0  0  0  0  0  0  0  0  0
   34.3344   -3.3389   39.7956 C   0  0  0  0  0  0  0  0  0  0  0  0
   33.5031   -2.5487   41.1475 S   0  0  0  0  0  0  0  0  0  0  0  0
   31.8305   -2.6746   40.4641 C   0  0  0  0  0  0  0  0  0  0  0  0
   31.5728   -1.6510   39.3877 C   0  0  0  0  0  0  0  0  0  0  0  0
   30.5588   -1.8421   38.4417 C   0  0  0  0  0  0  0  0  0  0  0  0
   30.3051   -0.8746   37.4643 C   0  0  0  0  0  0  0  0  0  0  0  0
   31.0700    0.2985   37.3993 C   0  0  0  0  0  0  0  0  0  0  0  0
   32.0923    0.4805   38.3417 C   0  0  0  0  0  0  0  0  0  0  0  0
   32.3432   -0.4829   39.3219 C   0  0  0  0  0  0  0  0  0  0  0  0
   33.1446   -0.3134   40.0383 H   0  0  0  0  0  0  0  0  0  0  0  0
   32.7027    1.3810   38.3239 H   0  0  0  0  0  0  0  0  0  0  0  0
   30.8007    1.3847   36.3724 C   0  0  0  0  0  0  0  0  0  0  0  0
   31.7481    2.5675   36.5846 C   0  0  0  0  0  0  0  0  0  0  0  0
   31.5883    3.0449   37.5577 H   0  0  0  0  0  0  0  0  0  0  0  0
   32.7944    2.2447   36.5401 H   0  0  0  0  0  0  0  0  0  0  0  0
   31.5998    3.3261   35.8087 H   0  0  0  0  0  0  0  0  0  0  0  0
   29.3431    1.8532   36.3586 C   0  0  0  0  0  0  0  0  0  0  0  0
   29.0887    2.4383   37.2489 H   0  0  0  0  0  0  0  0  0  0  0  0
   28.6572    1.0007   36.3067 H   0  0  0  0  0  0  0  0  0  0  0  0
   29.1553    2.4886   35.4861 H   0  0  0  0  0  0  0  0  0  0  0  0
   31.0033    0.9721   35.3748 H   0  0  0  0  0  0  0  0  0  0  0  0
   29.4957   -1.0481   36.7595 H   0  0  0  0  0  0  0  0  0  0  0  0
   29.9505   -2.7438   38.4623 H   0  0  0  0  0  0  0  0  0  0  0  0
   31.0864   -2.5416   41.2590 H   0  0  0  0  0  0  0  0  0  0  0  0
   31.6825   -3.6845   40.0633 H   0  0  0  0  0  0  0  0  0  0  0  0
   34.7423   -2.5480   38.7959 N   0  0  0  0  0  0  0  0  0  0  0  0
   35.8963   -4.9762   36.9461 H   0  0  0  0  0  0  0  0  0  0  0  0
   38.2175   -1.8533   35.9465 H   0  0  0  0  0  0  0  0  0  0  0  0
   37.9658   -2.8984   37.3550 H   0  0  0  0  0  0  0  0  0  0  0  0
   39.9357   -0.5362   38.0101 H   0  0  0  0  0  0  0  0  0  0  0  0
   36.8856    2.2139   40.0185 C   0  0  0  0  0  0  0  0  0  0  0  0
   36.2227    2.8464   39.4192 H   0  0  0  0  0  0  0  0  0  0  0  0
   37.6882    2.8429   40.4163 H   0  0  0  0  0  0  0  0  0  0  0  0
   36.3034    1.8165   40.8559 H   0  0  0  0  0  0  0  0  0  0  0  0
  1  2  1  0  0  0  0
  1  5  1  0  0  0  0
  2  3  2  0  0  0  0
  2 43  1  0  0  0  0
  3  4  1  0  0  0  0
  4  5  2  0  0  0  0
  4 42  1  0  0  0  0
  5  6  1  0  0  0  0
  6  7  1  0  0  0  0
  6 40  1  0  0  0  0
  6 41  1  0  0  0  0
  7  8  1  0  0  0  0
  8  9  1  0  0  0  0
  8 38  2  0  0  0  0
  9 10  1  0  0  0  0
  9 39  1  0  0  0  0
 10 11  2  0  0  0  0
 10 12  1  0  0  0  0
 12 13  2  0  0  0  0
 13 14  1  0  0  0  0
 13 38  1  0  0  0  0
 14 15  1  0  0  0  0
 15 16  1  0  0  0  0
 15 36  1  0  0  0  0
 15 37  1  0  0  0  0
 16 17  1  0  0  0  0
 16 21  2  0  0  0  0
 17 18  2  0  0  0  0
 17 35  1  0  0  0  0
 18 19  1  0  0  0  0
 18 34  1  0  0  0  0
 19 20  2  0  0  0  0
 19 24  1  0  0  0  0
 20 21  1  0  0  0  0
 20 23  1  0  0  0  0
 21 22  1  0  0  0  0
 24 25  1  0  0  0  0
 24 29  1  0  0  0  0
 24 33  1  0  0  0  0
 25 26  1  0  0  0  0
 25 27  1  0  0  0  0
 25 28  1  0  0  0  0
 29 30  1  0  0  0  0
 29 31  1  0  0  0  0
 29 32  1  0  0  0  0
 43 44  1  0  0  0  0
 43 45  1  0  0  0  0
 43 46  1  0  0  0  0
M  END
> <Gold.Goldscore.Fitness>
67.7756

> <Gold.Goldscore.External.HBond>
1.4847

> <Gold.Protein.ActiveResidues>
 GLU87   ILE88   VAL90   ASN91   ALA92   ASP94   ASN95   ARG98   ILE118  ASN120 
 LYS123  GLY124  ILE125  ILE141  PHE142  THR147  SER148  SER149  ASN150  TYR151 
 GLY160  GLY161  ARG162  ASN163  GLY164  TYR165  GLY166  ALA167  LYS168  LEU169 
 THR181  THR215  ILE217  ILE317  GLN376  LYS378  ILE33   TYR34   MG903  

> <Gold.Goldscore.Internal.HBond>
0.0

> <Gold.Goldscore.Internal.Torsion.Weighted>
-4.6232

> <Gold.Protein.RotatedTorsions>
[ 8833 2752 2751 2750 ] final  -92.65 input   60.00 | X-H torsion
[ 6906  969  968  965 ] final -179.89 input   59.99 | X-H torsion
[ 6910  975  974  971 ] final  -12.12 input   60.00 | X-H torsion
[ 6897  962  961  958 ] final   71.11 input   60.00 | X-H torsion
[ 9084 2997 2996 2994 ] final  -38.60 input   60.00 | X-H torsion
[ 7406 1497 1496 1493 ] final  170.76 input   60.00 | X-H torsion
[ 7140 1220 1219 1216 ] final  115.27 input   60.00 | X-H torsion
[ 6926  995  994  992 ] final   25.13 input   60.0

> <Gold.Goldscore.Constraint.Score>
0.0

> <Gold.Id.Protein>
1ZXM|1ZXM_protein|mol2

> <Gold.Protein.RotatedAtoms>
   40.6750    3.3830   41.8637 H   0  0  0  0  0  0  0  0  0  0  0  0  # atno 6897 bound_to 962 
   42.5663   -2.5035   38.2571 H   0  0  0  0  0  0  0  0  0  0  0  0  # atno 6906 bound_to 969 
   38.8111   -4.3840   40.0676 H   0  0  0  0  0  0  0  0  0  0  0  0  # atno 6910 bound_to 975 
   45.8911    1.1244   38.6740 H   0  0  0  0  0  0  0  0  0  0  0  0  # atno 6926 bound_to 995 
   28.0475    0.1168   43.0607 H   0  0  0  0  0  0  0  0  0  0  0  0  # atno 7140 bound_to 1220
   28.2838   -0.9017   41.0

> <Gold.Version>
5.3.0

> <Gold.Goldscore.Internal.Correction>
-0.0166

> <Gold.Goldscore.Internal.Vdw>
-1.3472

> <Gold.Goldscore.Internal.Vdw.Weighted>
-1.3472

> <Gold.Goldscore.External.HBond.Weighted>
1.4847

> <Gold.Goldscore.External.Vdw.Weighted>
72.2447

> <Gold.Goldscore.Internal.HBond.Weighted>
0.0

> <Gold.Goldscore.Hbonds>
donor molecule, donor type, donor heavy atom, donor atom, acceptor molecule, acceptor atom, score
      L1  H     1    27       P1   757  0.74

> <Gold.Goldscore.External.Vdw>
52.5416

> <Gold.Goldscore.Internal.Torsion>
-4.6232

> <Gold.Goldscore.Internal.Correction.Weighted>
-0.0166

> <Gold.Version>
5.3.0

> <Gold.Id.Protein>
1ZXM|1ZXM_protein|mol2

> <Gold.ASP.Fitness>
26.8620

> <Gold.ASP.ASP>
29.7940

> <Gold.ASP.Map>
-148.9700

> <Gold.ASP.DEClash>
1.6881

> <Gold.ASP.DEInternal>
1.2439

> <Gold.ASP.Internal.Correction>
0.1091

> <Gold.Protein.RotatedTorsions>
[ 8924 2752 2751 2750 ] final   97.31 input   60.00 | X-H torsion
[ 6908  969  968  965 ] final  -66.50 input   59.99 | X-H torsion
[ 6912  975  974  971 ] final -122.04 input   60.00 | X-H torsion
[ 6899  962  961  958 ] final -149.75 input   60.00 | X-H torsion
[ 9165 2997 2996 2994 ] final  -11.64 input   60.00 | X-H torsion
[ 7410 1497 1496 1493 ] final   -5.14 input   60.00 | X-H torsion
[ 7137 1220 1219 1216 ] final   -6.60 input   60.00 | X-H torsion
[ 6928  995  994  992 ] final   81.81 input   60.00 | X-H torsion

> <Gold.Protein.ActiveResidues>
 GLU87   ILE88   VAL90   ASN91   ALA92   ASP94   ASN95   ARG98   ILE118  ASN120 
 LYS123  GLY124  ILE125  ILE141  PHE142  THR147  SER148  SER149  ASN150  TYR151 
 GLY160  GLY161  ARG162  ASN163  GLY164  TYR165  GLY166  ALA167  LYS168  LEU169 
 THR181  THR215  ILE217  ILE317  GLN376  LYS378  ILE33   TYR34   MG903  

> <Gold.Protein.RotatedAtoms>
   41.0758    4.7266   42.9185 H   0  0  0  0  0  0  0  0  0  0  0  0  # atno 6899 bound_to 962 
   42.1341   -3.2334   39.5721 H   0  0  0  0  0  0  0  0  0  0  0  0  # atno 6908 bound_to 969 
   37.4819   -4.1472   40.7937 H   0  0  0  0  0  0  0  0  0  0  0  0  # atno 6912 bound_to 975 
   45.1994    1.2512   39.2177 H   0  0  0  0  0  0  0  0  0  0  0  0  # atno 6928 bound_to 995 
   26.7466   -0.0886   44.0321 H   0  0  0  0  0  0  0  0  0  0  0  0  # atno 7137 bound_to 1220
   26.7761   -0.2898   41.9822 H   0  0  0  0  0  0  0  0  0  0  0  0  # atno 7410 bound_to 1497
   43.5358    0.7027   29.9409 H   0  0  0  0  0  0  0  0  0  0  0  0  # atno 8924 bound_to 2752
   43.4176   -0.5149   31.0592 H   0  0  0  0  0  0  0  0  0  0  0  0  # atno 8925 bound_to 2752
   44.0610   -0.8232   29.5632 H   0  0  0  0  0  0  0  0  0  0  0  0  # atno 8926 bound_to 2752
   34.3592   -3.9349   43.8917 H   0  0  0  0  0  0  0  0  0  0  0  0  # atno 9165 bound_to 2997
   42.5000   -2.4393   38.1997 LP  0  0  0  0  0  0  0  0  0  0  0  0  # atno 11896 bound_to 969 
   41.0167   -2.2851   38.8649 LP  0  0  0  0  0  0  0  0  0  0  0  0  # atno 11897 bound_to 969 
   37.8388   -5.7099   40.5133 LP  0  0  0  0  0  0  0  0  0  0  0  0  # atno 11898 bound_to 975 
   38.8643   -4.5354   40.0281 LP  0  0  0  0  0  0  0  0  0  0  0  0  # atno 11899 bound_to 975 
   40.4800    3.4545   42.0972 LP  0  0  0  0  0  0  0  0  0  0  0  0  # atno 11904 bound_to 962 
   41.8858    4.1436   41.6332 LP  0  0  0  0  0  0  0  0  0  0  0  0  # atno 11905 bound_to 962 
   33.8058   -4.0869   45.4144 LP  0  0  0  0  0  0  0  0  0  0  0  0  # atno 11912 bound_to 2997
   34.6206   -5.3156   44.7123 LP  0  0  0  0  0  0  0  0  0  0  0  0  # atno 11913 bound_to 2997
   28.3445   -0.0717   41.6076 LP  0  0  0  0  0  0  0  0  0  0  0  0  # atno 11922 bound_to 1497
   27.5291   -1.3526   41.0068 LP  0  0  0  0  0  0  0  0  0  0  0  0  # atno 11923 bound_to 1497
   28.2559   -0.1385   44.6383 LP  0  0  0  0  0  0  0  0  0  0  0  0  # atno 11930 bound_to 1220
   28.0219    0.1166   43.0424 LP  0  0  0  0  0  0  0  0  0  0  0  0  # atno 11931 bound_to 1220

$$$$
****|SGG-4|sdf|1|dock9
  -GOLD-   9 72311443D 1   1.00000     0.00000

 46 48  0  0  0  0  0  0  0  0  1 V2000
   36.7227   -0.1077   37.6725 S   0  0  0  0  0  0  0  0  0  0  0  0
   38.0782    0.5938   38.4611 C   0  0  0  0  0  0  0  0  0  0  0  0
   39.2228   -0.0286   38.2812 N   0  0  0  0  0  0  0  0  0  0  0  0
   39.0291   -1.1300   37.4717 C   0  0  0  0  0  0  0  0  0  0  0  0
   37.7345   -1.3402   37.0361 C   0  0  0  0  0  0  0  0  0  0  0  0
   37.1753   -2.4373   36.1890 C   0  0  0  0  0  0  0  0  0  0  0  0
   35.3608   -2.5192   36.3343 S   0  0  0  0  0  0  0  0  0  0  0  0
   35.2444   -3.4835   37.7995 C   0  0  0  0  0  0  0  0  0  0  0  0
   35.2249   -4.8660   37.6945 N   0  0  0  0  0  0  0  0  0  0  0  0
   35.1207   -5.6472   38.8387 C   0  0  0  0  0  0  0  0  0  0  0  0
   35.1117   -7.0406   38.7434 O   0  0  0  0  0  0  0  0  0  0  0  0
   35.0197   -5.0544   40.0324 N   0  0  0  0  0  0  0  0  0  0  0  0
   35.0373   -3.7162   40.0506 C   0  0  0  0  0  0  0  0  0  0  0  0
   34.8365   -2.9449   41.6342 S   0  0  0  0  0  0  0  0  0  0  0  0
   33.0254   -2.9193   41.6238 C   0  0  0  0  0  0  0  0  0  0  0  0
   32.4718   -1.9625   40.5986 C   0  0  0  0  0  0  0  0  0  0  0  0
   31.2289   -2.1932   39.9972 C   0  0  0  0  0  0  0  0  0  0  0  0
   30.7075   -1.2860   39.0694 C   0  0  0  0  0  0  0  0  0  0  0  0
   31.4237   -0.1360   38.7086 C   0  0  0  0  0  0  0  0  0  0  0  0
   32.6734    0.0851   39.3048 C   0  0  0  0  0  0  0  0  0  0  0  0
   33.1930   -0.8177   40.2358 C   0  0  0  0  0  0  0  0  0  0  0  0
   34.1664   -0.6191   40.6800 H   0  0  0  0  0  0  0  0  0  0  0  0
   33.2547    0.9694   39.0519 H   0  0  0  0  0  0  0  0  0  0  0  0
   30.8732    0.8867   37.7298 C   0  0  0  0  0  0  0  0  0  0  0  0
   30.3029    0.1896   36.4928 C   0  0  0  0  0  0  0  0  0  0  0  0
   31.0784   -0.3511   35.9390 H   0  0  0  0  0  0  0  0  0  0  0  0
   29.5283   -0.5335   36.7724 H   0  0  0  0  0  0  0  0  0  0  0  0
   29.8492    0.9183   35.8127 H   0  0  0  0  0  0  0  0  0  0  0  0
   31.8992    1.9499   37.3283 C   0  0  0  0  0  0  0  0  0  0  0  0
   32.6822    1.5441   36.6788 H   0  0  0  0  0  0  0  0  0  0  0  0
   32.3825    2.3823   38.2112 H   0  0  0  0  0  0  0  0  0  0  0  0
   31.4106    2.7636   36.7810 H   0  0  0  0  0  0  0  0  0  0  0  0
   30.0480    1.4213   38.2195 H   0  0  0  0  0  0  0  0  0  0  0  0
   29.7298   -1.4877   38.6388 H   0  0  0  0  0  0  0  0  0  0  0  0
   30.6506   -3.0785   40.2523 H   0  0  0  0  0  0  0  0  0  0  0  0
   32.6458   -2.6318   42.6119 H   0  0  0  0  0  0  0  0  0  0  0  0
   32.6541   -3.9325   41.4290 H   0  0  0  0  0  0  0  0  0  0  0  0
   35.1457   -2.9011   38.9945 N   0  0  0  0  0  0  0  0  0  0  0  0
   35.2874   -5.2962   36.7824 H   0  0  0  0  0  0  0  0  0  0  0  0
   37.4415   -2.2476   35.1425 H   0  0  0  0  0  0  0  0  0  0  0  0
   37.6000   -3.4060   36.4738 H   0  0  0  0  0  0  0  0  0  0  0  0
   39.8804   -1.7547   37.2276 H   0  0  0  0  0  0  0  0  0  0  0  0
   37.9084    1.8143   39.2948 C   0  0  0  0  0  0  0  0  0  0  0  0
   37.4458    2.6150   38.7085 H   0  0  0  0  0  0  0  0  0  0  0  0
   38.8814    2.1700   39.6481 H   0  0  0  0  0  0  0  0  0  0  0  0
   37.2691    1.6214   40.1621 H   0  0  0  0  0  0  0  0  0  0  0  0
  1  2  1  0  0  0  0
  1  5  1  0  0  0  0
  2  3  2  0  0  0  0
  2 43  1  0  0  0  0
  3  4  1  0  0  0  0
  4  5  2  0  0  0  0
  4 42  1  0  0  0  0
  5  6  1  0  0  0  0
  6  7  1  0  0  0  0
  6 40  1  0  0  0  0
  6 41  1  0  0  0  0
  7  8  1  0  0  0  0
  8  9  1  0  0  0  0
  8 38  2  0  0  0  0
  9 10  1  0  0  0  0
  9 39  1  0  0  0  0
 10 11  2  0  0  0  0
 10 12  1  0  0  0  0
 12 13  2  0  0  0  0
 13 14  1  0  0  0  0
 13 38  1  0  0  0  0
 14 15  1  0  0  0  0
 15 16  1  0  0  0  0
 15 36  1  0  0  0  0
 15 37  1  0  0  0  0
 16 17  1  0  0  0  0
 16 21  2  0  0  0  0
 17 18  2  0  0  0  0
 17 35  1  0  0  0  0
 18 19  1  0  0  0  0
 18 34  1  0  0  0  0
 19 20  2  0  0  0  0
 19 24  1  0  0  0  0
 20 21  1  0  0  0  0
 20 23  1  0  0  0  0
 21 22  1  0  0  0  0
 24 25  1  0  0  0  0
 24 29  1  0  0  0  0
 24 33  1  0  0  0  0
 25 26  1  0  0  0  0
 25 27  1  0  0  0  0
 25 28  1  0  0  0  0
 29 30  1  0  0  0  0
 29 31  1  0  0  0  0
 29 32  1  0  0  0  0
 43 44  1  0  0  0  0
 43 45  1  0  0  0  0
 43 46  1  0  0  0  0
M  END
> <Gold.Goldscore.Fitness>
67.7756

> <Gold.Goldscore.External.HBond>
1.4847

> <Gold.Protein.ActiveResidues>
 GLU87   ILE88   VAL90   ASN91   ALA92   ASP94   ASN95   ARG98   ILE118  ASN120 
 LYS123  GLY124  ILE125  ILE141  PHE142  THR147  SER148  SER149  ASN150  TYR151 
 GLY160  GLY161  ARG162  ASN163  GLY164  TYR165  GLY166  ALA167  LYS168  LEU169 
 THR181  THR215  ILE217  ILE317  GLN376  LYS378  ILE33   TYR34   MG903  

> <Gold.Goldscore.Internal.HBond>
0.0

> <Gold.Goldscore.Internal.Torsion.Weighted>
-4.6232

> <Gold.Protein.RotatedTorsions>
[ 8833 2752 2751 2750 ] final  -92.65 input   60.00 | X-H torsion
[ 6906  969  968  965 ] final -179.89 input   59.99 | X-H torsion
[ 6910  975  974  971 ] final  -12.12 input   60.00 | X-H torsion
[ 6897  962  961  958 ] final   71.11 input   60.00 | X-H torsion
[ 9084 2997 2996 2994 ] final  -38.60 input   60.00 | X-H torsion
[ 7406 1497 1496 1493 ] final  170.76 input   60.00 | X-H torsion
[ 7140 1220 1219 1216 ] final  115.27 input   60.00 | X-H torsion
[ 6926  995  994  992 ] final   25.13 input   60.0

> <Gold.Goldscore.Constraint.Score>
0.0

> <Gold.Id.Protein>
1ZXM|1ZXM_protein|mol2

> <Gold.Protein.RotatedAtoms>
   40.6750    3.3830   41.8637 H   0  0  0  0  0  0  0  0  0  0  0  0  # atno 6897 bound_to 962 
   42.5663   -2.5035   38.2571 H   0  0  0  0  0  0  0  0  0  0  0  0  # atno 6906 bound_to 969 
   38.8111   -4.3840   40.0676 H   0  0  0  0  0  0  0  0  0  0  0  0  # atno 6910 bound_to 975 
   45.8911    1.1244   38.6740 H   0  0  0  0  0  0  0  0  0  0  0  0  # atno 6926 bound_to 995 
   28.0475    0.1168   43.0607 H   0  0  0  0  0  0  0  0  0  0  0  0  # atno 7140 bound_to 1220
   28.2838   -0.9017   41.0

> <Gold.Version>
5.3.0

> <Gold.Goldscore.Internal.Correction>
-0.0166

> <Gold.Goldscore.Internal.Vdw>
-1.3472

> <Gold.Goldscore.Internal.Vdw.Weighted>
-1.3472

> <Gold.Goldscore.External.HBond.Weighted>
1.4847

> <Gold.Goldscore.External.Vdw.Weighted>
72.2447

> <Gold.Goldscore.Internal.HBond.Weighted>
0.0

> <Gold.Goldscore.Hbonds>
donor molecule, donor type, donor heavy atom, donor atom, acceptor molecule, acceptor atom, score
      L1  H     1    27       P1   757  0.74

> <Gold.Goldscore.External.Vdw>
52.5416

> <Gold.Goldscore.Internal.Torsion>
-4.6232

> <Gold.Goldscore.Internal.Correction.Weighted>
-0.0166

> <Gold.Version>
5.3.0

> <Gold.Id.Protein>
1ZXM|1ZXM_protein|mol2

> <Gold.ASP.Fitness>
26.7116

> <Gold.ASP.ASP>
28.4160

> <Gold.ASP.Map>
-142.0800

> <Gold.ASP.DEClash>
0.0955

> <Gold.ASP.DEInternal>
1.6089

> <Gold.ASP.Internal.Correction>
0.1091

> <Gold.Protein.RotatedTorsions>
[ 8924 2752 2751 2750 ] final -152.27 input   60.00 | X-H torsion
[ 6908  969  968  965 ] final  145.99 input   59.99 | X-H torsion
[ 6912  975  974  971 ] final  -14.41 input   60.00 | X-H torsion
[ 6899  962  961  958 ] final  127.15 input   60.00 | X-H torsion
[ 9165 2997 2996 2994 ] final  155.93 input   60.00 | X-H torsion
[ 7410 1497 1496 1493 ] final   -2.19 input   60.00 | X-H torsion
[ 7137 1220 1219 1216 ] final  174.55 input   60.00 | X-H torsion
[ 6928  995  994  992 ] final   67.26 input   60.00 | X-H torsion

> <Gold.Protein.ActiveResidues>
 GLU87   ILE88   VAL90   ASN91   ALA92   ASP94   ASN95   ARG98   ILE118  ASN120 
 LYS123  GLY124  ILE125  ILE141  PHE142  THR147  SER148  SER149  ASN150  TYR151 
 GLY160  GLY161  ARG162  ASN163  GLY164  TYR165  GLY166  ALA167  LYS168  LEU169 
 THR181  THR215  ILE217  ILE317  GLN376  LYS378  ILE33   TYR34   MG903  

> <Gold.Protein.RotatedAtoms>
   40.3390    3.7907   42.5670 H   0  0  0  0  0  0  0  0  0  0  0  0  # atno 6899 bound_to 962 
   42.1312   -2.2105   38.0938 H   0  0  0  0  0  0  0  0  0  0  0  0  # atno 6908 bound_to 969 
   38.7968   -4.3508   40.0772 H   0  0  0  0  0  0  0  0  0  0  0  0  # atno 6912 bound_to 975 
   45.3181    1.2009   39.0188 H   0  0  0  0  0  0  0  0  0  0  0  0  # atno 6928 bound_to 995 
   28.6009    0.0147   43.7960 H   0  0  0  0  0  0  0  0  0  0  0  0  # atno 7137 bound_to 1220
   26.7530   -0.3281   41.9639 H   0  0  0  0  0  0  0  0  0  0  0  0  # atno 7410 bound_to 1497
   43.3707   -0.3640   31.0834 H   0  0  0  0  0  0  0  0  0  0  0  0  # atno 8924 bound_to 2752
   44.0442   -0.9318   29.6794 H   0  0  0  0  0  0  0  0  0  0  0  0  # atno 8925 bound_to 2752
   43.5995    0.6603   29.8006 H   0  0  0  0  0  0  0  0  0  0  0  0  # atno 8926 bound_to 2752
   34.2706   -5.0929   45.3464 H   0  0  0  0  0  0  0  0  0  0  0  0  # atno 9165 bound_to 2997
   41.0174   -2.5402   39.2335 LP  0  0  0  0  0  0  0  0  0  0  0  0  # atno 11896 bound_to 969 
   42.5022   -3.2144   39.3197 LP  0  0  0  0  0  0  0  0  0  0  0  0  # atno 11897 bound_to 969 
   37.3634   -4.3029   40.8460 LP  0  0  0  0  0  0  0  0  0  0  0  0  # atno 11898 bound_to 975 
   38.0155   -5.7372   40.4170 LP  0  0  0  0  0  0  0  0  0  0  0  0  # atno 11899 bound_to 975 
   41.5318    3.6940   41.4643 LP  0  0  0  0  0  0  0  0  0  0  0  0  # atno 11904 bound_to 962 
   41.5760    4.8467   42.6201 LP  0  0  0  0  0  0  0  0  0  0  0  0  # atno 11905 bound_to 962 
   34.6737   -4.6225   43.8416 LP  0  0  0  0  0  0  0  0  0  0  0  0  # atno 11912 bound_to 2997
   33.8420   -3.6138   44.8202 LP  0  0  0  0  0  0  0  0  0  0  0  0  # atno 11913 bound_to 2997
   28.3209   -0.0407   41.6367 LP  0  0  0  0  0  0  0  0  0  0  0  0  # atno 11922 bound_to 1497
   27.5759   -1.3451   40.9962 LP  0  0  0  0  0  0  0  0  0  0  0  0  # atno 11923 bound_to 1497
   27.1044    0.0655   43.1593 LP  0  0  0  0  0  0  0  0  0  0  0  0  # atno 11930 bound_to 1220
   27.3057   -0.1914   44.7593 LP  0  0  0  0  0  0  0  0  0  0  0  0  # atno 11931 bound_to 1220

$$$$
****|SGG-4|sdf|1|dock42
  -GOLD-   9 72311473D 1   1.00000     0.00000

 46 48  0  0  0  0  0  0  0  0  1 V2000
   36.4316    0.1615   38.3209 S   0  0  0  0  0  0  0  0  0  0  0  0
   37.3314    1.5339   38.8292 C   0  0  0  0  0  0  0  0  0  0  0  0
   38.6393    1.4037   38.7797 N   0  0  0  0  0  0  0  0  0  0  0  0
   38.9623    0.1454   38.3127 C   0  0  0  0  0  0  0  0  0  0  0  0
   37.8957   -0.6781   38.0060 C   0  0  0  0  0  0  0  0  0  0  0  0
   37.8858   -2.0905   37.5171 C   0  0  0  0  0  0  0  0  0  0  0  0
   36.4399   -2.4075   36.4546 S   0  0  0  0  0  0  0  0  0  0  0  0
   35.6078   -3.5819   37.4640 C   0  0  0  0  0  0  0  0  0  0  0  0
   35.7252   -4.9302   37.1626 N   0  0  0  0  0  0  0  0  0  0  0  0
   35.0658   -5.8747   37.9396 C   0  0  0  0  0  0  0  0  0  0  0  0
   35.1875   -7.2356   37.6503 O   0  0  0  0  0  0  0  0  0  0  0  0
   34.3056   -5.4701   38.9618 N   0  0  0  0  0  0  0  0  0  0  0  0
   34.2358   -4.1519   39.1836 C   0  0  0  0  0  0  0  0  0  0  0  0
   33.1719   -3.6279   40.5014 S   0  0  0  0  0  0  0  0  0  0  0  0
   33.7187   -1.9014   40.5347 C   0  0  0  0  0  0  0  0  0  0  0  0
   32.8975   -1.0227   39.6257 C   0  0  0  0  0  0  0  0  0  0  0  0
   33.4280    0.1602   39.0975 C   0  0  0  0  0  0  0  0  0  0  0  0
   32.6714    0.9552   38.2307 C   0  0  0  0  0  0  0  0  0  0  0  0
   31.3613    0.5952   37.8851 C   0  0  0  0  0  0  0  0  0  0  0  0
   30.8298   -0.5845   38.4257 C   0  0  0  0  0  0  0  0  0  0  0  0
   31.5866   -1.3823   39.2875 C   0  0  0  0  0  0  0  0  0  0  0  0
   31.1455   -2.2913   39.6919 H   0  0  0  0  0  0  0  0  0  0  0  0
   29.8181   -0.8970   38.1756 H   0  0  0  0  0  0  0  0  0  0  0  0
   30.5234    1.4171   36.9213 C   0  0  0  0  0  0  0  0  0  0  0  0
   29.7731    0.5021   35.9510 C   0  0  0  0  0  0  0  0  0  0  0  0
   30.4616   -0.0696   35.3190 H   0  0  0  0  0  0  0  0  0  0  0  0
   29.1462   -0.2147   36.4934 H   0  0  0  0  0  0  0  0  0  0  0  0
   29.1197    1.0867   35.2946 H   0  0  0  0  0  0  0  0  0  0  0  0
   31.3371    2.4658   36.1581 C   0  0  0  0  0  0  0  0  0  0  0  0
   32.0002    2.0126   35.4134 H   0  0  0  0  0  0  0  0  0  0  0  0
   31.9529    3.0592   36.8426 H   0  0  0  0  0  0  0  0  0  0  0  0
   30.6699    3.1527   35.6259 H   0  0  0  0  0  0  0  0  0  0  0  0
   29.7734    1.9698   37.5033 H   0  0  0  0  0  0  0  0  0  0  0  0
   33.1242    1.8559   37.8237 H   0  0  0  0  0  0  0  0  0  0  0  0
   34.4399    0.4697   39.3500 H   0  0  0  0  0  0  0  0  0  0  0  0
   34.7707   -1.8322   40.2319 H   0  0  0  0  0  0  0  0  0  0  0  0
   33.6648   -1.5286   41.5645 H   0  0  0  0  0  0  0  0  0  0  0  0
   34.8494   -3.1878   38.4870 N   0  0  0  0  0  0  0  0  0  0  0  0
   36.2924   -5.2165   36.3770 H   0  0  0  0  0  0  0  0  0  0  0  0
   38.8000   -2.2719   36.9395 H   0  0  0  0  0  0  0  0  0  0  0  0
   37.8730   -2.7944   38.3563 H   0  0  0  0  0  0  0  0  0  0  0  0
   40.0078   -0.1225   38.2144 H   0  0  0  0  0  0  0  0  0  0  0  0
   36.6268    2.7561   39.3017 C   0  0  0  0  0  0  0  0  0  0  0  0
   35.9282    3.1126   38.5378 H   0  0  0  0  0  0  0  0  0  0  0  0
   37.3476    3.5549   39.5028 H   0  0  0  0  0  0  0  0  0  0  0  0
   36.0551    2.5613   40.2146 H   0  0  0  0  0  0  0  0  0  0  0  0
  1  2  1  0  0  0  0
  1  5  1  0  0  0  0
  2  3  2  0  0  0  0
  2 43  1  0  0  0  0
  3  4  1  0  0  0  0
  4  5  2  0  0  0  0
  4 42  1  0  0  0  0
  5  6  1  0  0  0  0
  6  7  1  0  0  0  0
  6 40  1  0  0  0  0
  6 41  1  0  0  0  0
  7  8  1  0  0  0  0
  8  9  1  0  0  0  0
  8 38  2  0  0  0  0
  9 10  1  0  0  0  0
  9 39  1  0  0  0  0
 10 11  2  0  0  0  0
 10 12  1  0  0  0  0
 12 13  2  0  0  0  0
 13 14  1  0  0  0  0
 13 38  1  0  0  0  0
 14 15  1  0  0  0  0
 15 16  1  0  0  0  0
 15 36  1  0  0  0  0
 15 37  1  0  0  0  0
 16 17  1  0  0  0  0
 16 21  2  0  0  0  0
 17 18  2  0  0  0  0
 17 35  1  0  0  0  0
 18 19  1  0  0  0  0
 18 34  1  0  0  0  0
 19 20  2  0  0  0  0
 19 24  1  0  0  0  0
 20 21  1  0  0  0  0
 20 23  1  0  0  0  0
 21 22  1  0  0  0  0
 24 25  1  0  0  0  0
 24 29  1  0  0  0  0
 24 33  1  0  0  0  0
 25 26  1  0  0  0  0
 25 27  1  0  0  0  0
 25 28  1  0  0  0  0
 29 30  1  0  0  0  0
 29 31  1  0  0  0  0
 29 32  1  0  0  0  0
 43 44  1  0  0  0  0
 43 45  1  0  0  0  0
 43 46  1  0  0  0  0
M  END
> <Gold.Goldscore.Fitness>
67.7756

> <Gold.Goldscore.External.HBond>
1.4847

> <Gold.Protein.ActiveResidues>
 GLU87   ILE88   VAL90   ASN91   ALA92   ASP94   ASN95   ARG98   ILE118  ASN120 
 LYS123  GLY124  ILE125  ILE141  PHE142  THR147  SER148  SER149  ASN150  TYR151 
 GLY160  GLY161  ARG162  ASN163  GLY164  TYR165  GLY166  ALA167  LYS168  LEU169 
 THR181  THR215  ILE217  ILE317  GLN376  LYS378  ILE33   TYR34   MG903  

> <Gold.Goldscore.Internal.HBond>
0.0

> <Gold.Goldscore.Internal.Torsion.Weighted>
-4.6232

> <Gold.Protein.RotatedTorsions>
[ 8833 2752 2751 2750 ] final  -92.65 input   60.00 | X-H torsion
[ 6906  969  968  965 ] final -179.89 input   59.99 | X-H torsion
[ 6910  975  974  971 ] final  -12.12 input   60.00 | X-H torsion
[ 6897  962  961  958 ] final   71.11 input   60.00 | X-H torsion
[ 9084 2997 2996 2994 ] final  -38.60 input   60.00 | X-H torsion
[ 7406 1497 1496 1493 ] final  170.76 input   60.00 | X-H torsion
[ 7140 1220 1219 1216 ] final  115.27 input   60.00 | X-H torsion
[ 6926  995  994  992 ] final   25.13 input   60.0

> <Gold.Goldscore.Constraint.Score>
0.0

> <Gold.Id.Protein>
1ZXM|1ZXM_protein|mol2

> <Gold.Protein.RotatedAtoms>
   40.6750    3.3830   41.8637 H   0  0  0  0  0  0  0  0  0  0  0  0  # atno 6897 bound_to 962 
   42.5663   -2.5035   38.2571 H   0  0  0  0  0  0  0  0  0  0  0  0  # atno 6906 bound_to 969 
   38.8111   -4.3840   40.0676 H   0  0  0  0  0  0  0  0  0  0  0  0  # atno 6910 bound_to 975 
   45.8911    1.1244   38.6740 H   0  0  0  0  0  0  0  0  0  0  0  0  # atno 6926 bound_to 995 
   28.0475    0.1168   43.0607 H   0  0  0  0  0  0  0  0  0  0  0  0  # atno 7140 bound_to 1220
   28.2838   -0.9017   41.0

> <Gold.Version>
5.3.0

> <Gold.Goldscore.Internal.Correction>
-0.0166

> <Gold.Goldscore.Internal.Vdw>
-1.3472

> <Gold.Goldscore.Internal.Vdw.Weighted>
-1.3472

> <Gold.Goldscore.External.HBond.Weighted>
1.4847

> <Gold.Goldscore.External.Vdw.Weighted>
72.2447

> <Gold.Goldscore.Internal.HBond.Weighted>
0.0

> <Gold.Goldscore.Hbonds>
donor molecule, donor type, donor heavy atom, donor atom, acceptor molecule, acceptor atom, score
      L1  H     1    27       P1   757  0.74

> <Gold.Goldscore.External.Vdw>
52.5416

> <Gold.Goldscore.Internal.Torsion>
-4.6232

> <Gold.Goldscore.Internal.Correction.Weighted>
-0.0166

> <Gold.Version>
5.3.0

> <Gold.Id.Protein>
1ZXM|1ZXM_protein|mol2

> <Gold.ASP.Fitness>
26.7071

> <Gold.ASP.ASP>
31.0660

> <Gold.ASP.Map>
-155.3300

> <Gold.ASP.DEClash>
2.3788

> <Gold.ASP.DEInternal>
1.9801

> <Gold.ASP.Internal.Correction>
0.1091

> <Gold.Protein.RotatedTorsions>
[ 8924 2752 2751 2750 ] final -171.19 input   60.00 | X-H torsion
[ 6908  969  968  965 ] final  145.19 input   59.99 | X-H torsion
[ 6912  975  974  971 ] final    6.69 input   60.00 | X-H torsion
[ 6899  962  961  958 ] final  -14.15 input   60.00 | X-H torsion
[ 9165 2997 2996 2994 ] final  -46.88 input   60.00 | X-H torsion
[ 7410 1497 1496 1493 ] final  -31.36 input   60.00 | X-H torsion
[ 7137 1220 1219 1216 ] final  155.74 input   60.00 | X-H torsion
[ 6928  995  994  992 ] final -149.57 input   60.00 | X-H torsion

> <Gold.Protein.ActiveResidues>
 GLU87   ILE88   VAL90   ASN91   ALA92   ASP94   ASN95   ARG98   ILE118  ASN120 
 LYS123  GLY124  ILE125  ILE141  PHE142  THR147  SER148  SER149  ASN150  TYR151 
 GLY160  GLY161  ARG162  ASN163  GLY164  TYR165  GLY166  ALA167  LYS168  LEU169 
 THR181  THR215  ILE217  ILE317  GLN376  LYS378  ILE33   TYR34   MG903  

> <Gold.Protein.RotatedAtoms>
   41.7631    3.9437   41.5329 H   0  0  0  0  0  0  0  0  0  0  0  0  # atno 6899 bound_to 962 
   42.1193   -2.2051   38.0932 H   0  0  0  0  0  0  0  0  0  0  0  0  # atno 6908 bound_to 969 
   38.8820   -4.6768   40.0134 H   0  0  0  0  0  0  0  0  0  0  0  0  # atno 6912 bound_to 975 
   46.3178    1.6096   40.4293 H   0  0  0  0  0  0  0  0  0  0  0  0  # atno 6928 bound_to 995 
   28.5141    0.0595   43.5060 H   0  0  0  0  0  0  0  0  0  0  0  0  # atno 7137 bound_to 1220
   27.0620    0.0058   42.0881 H   0  0  0  0  0  0  0  0  0  0  0  0  # atno 7410 bound_to 1497
   43.3037   -0.0577   31.0577 H   0  0  0  0  0  0  0  0  0  0  0  0  # atno 8924 bound_to 2752
   43.9812   -1.0846   29.9470 H   0  0  0  0  0  0  0  0  0  0  0  0  # atno 8925 bound_to 2752
   43.7295    0.5069   29.5587 H   0  0  0  0  0  0  0  0  0  0  0  0  # atno 8926 bound_to 2752
   34.0722   -3.6217   44.2669 H   0  0  0  0  0  0  0  0  0  0  0  0  # atno 9165 bound_to 2997
   41.0205   -2.5483   39.2434 LP  0  0  0  0  0  0  0  0  0  0  0  0  # atno 11896 bound_to 969 
   42.5112   -3.2116   39.3104 LP  0  0  0  0  0  0  0  0  0  0  0  0  # atno 11897 bound_to 969 
   37.5734   -4.0471   40.7476 LP  0  0  0  0  0  0  0  0  0  0  0  0  # atno 11898 bound_to 975 
   37.7197   -5.6648   40.5797 LP  0  0  0  0  0  0  0  0  0  0  0  0  # atno 11899 bound_to 975 
   41.2952    4.8165   42.8241 LP  0  0  0  0  0  0  0  0  0  0  0  0  # atno 11904 bound_to 962 
   40.3785    3.5701   42.3018 LP  0  0  0  0  0  0  0  0  0  0  0  0  # atno 11905 bound_to 962 
   33.9768   -4.6133   45.5536 LP  0  0  0  0  0  0  0  0  0  0  0  0  # atno 11912 bound_to 2997
   34.7387   -5.1045   44.1953 LP  0  0  0  0  0  0  0  0  0  0  0  0  # atno 11913 bound_to 2997
   28.4559   -0.3944   41.3499 LP  0  0  0  0  0  0  0  0  0  0  0  0  # atno 11922 bound_to 1497
   27.1297   -1.3276   41.1579 LP  0  0  0  0  0  0  0  0  0  0  0  0  # atno 11923 bound_to 1497
   26.8923    0.0220   43.3787 LP  0  0  0  0  0  0  0  0  0  0  0  0  # atno 11930 bound_to 1220
   27.6053   -0.1930   44.8320 LP  0  0  0  0  0  0  0  0  0  0  0  0  # atno 11931 bound_to 1220

$$$$
****|SGG-4|sdf|1|dock78
  -GOLD-   9 72311503D 1   1.00000     0.00000

 46 48  0  0  0  0  0  0  0  0  1 V2000
   38.4780    1.6391   37.3420 S   0  0  0  0  0  0  0  0  0  0  0  0
   39.8860    0.8835   36.7112 C   0  0  0  0  0  0  0  0  0  0  0  0
   40.2866   -0.1928   37.3522 N   0  0  0  0  0  0  0  0  0  0  0  0
   39.4359   -0.4460   38.4095 C   0  0  0  0  0  0  0  0  0  0  0  0
   38.3873    0.4402   38.5676 C   0  0  0  0  0  0  0  0  0  0  0  0
   37.3170    0.4813   39.6101 C   0  0  0  0  0  0  0  0  0  0  0  0
   37.4593   -0.9303   40.7534 S   0  0  0  0  0  0  0  0  0  0  0  0
   36.6264   -2.1464   39.7954 C   0  0  0  0  0  0  0  0  0  0  0  0
   37.2194   -2.6055   38.6291 N   0  0  0  0  0  0  0  0  0  0  0  0
   36.5729   -3.5571   37.8503 C   0  0  0  0  0  0  0  0  0  0  0  0
   37.1678   -4.0336   36.6799 O   0  0  0  0  0  0  0  0  0  0  0  0
   35.3713   -4.0072   38.2249 N   0  0  0  0  0  0  0  0  0  0  0  0
   34.8615   -3.5096   39.3580 C   0  0  0  0  0  0  0  0  0  0  0  0
   33.2395   -4.0674   39.8063 S   0  0  0  0  0  0  0  0  0  0  0  0
   32.7631   -2.5900   40.7396 C   0  0  0  0  0  0  0  0  0  0  0  0
   32.3294   -1.4599   39.8411 C   0  0  0  0  0  0  0  0  0  0  0  0
   33.2561   -0.5271   39.3608 C   0  0  0  0  0  0  0  0  0  0  0  0
   32.8524    0.5012   38.5032 C   0  0  0  0  0  0  0  0  0  0  0  0
   31.5103    0.6310   38.1193 C   0  0  0  0  0  0  0  0  0  0  0  0
   30.5834   -0.2987   38.6121 C   0  0  0  0  0  0  0  0  0  0  0  0
   30.9864   -1.3295   39.4646 C   0  0  0  0  0  0  0  0  0  0  0  0
   30.2431   -2.0346   39.8315 H   0  0  0  0  0  0  0  0  0  0  0  0
   29.5344   -0.2311   38.3313 H   0  0  0  0  0  0  0  0  0  0  0  0
   31.0427    1.7151   37.1638 C   0  0  0  0  0  0  0  0  0  0  0  0
   30.3582    1.0939   35.9444 C   0  0  0  0  0  0  0  0  0  0  0  0
   31.0507    0.4758   35.3623 H   0  0  0  0  0  0  0  0  0  0  0  0
   29.5188    0.4579   36.2476 H   0  0  0  0  0  0  0  0  0  0  0  0
   29.9644    1.8730   35.2830 H   0  0  0  0  0  0  0  0  0  0  0  0
   32.1650    2.6626   36.7315 C   0  0  0  0  0  0  0  0  0  0  0  0
   32.8765    2.1785   36.0541 H   0  0  0  0  0  0  0  0  0  0  0  0
   32.7222    3.0328   37.5990 H   0  0  0  0  0  0  0  0  0  0  0  0
   31.7504    3.5290   36.2044 H   0  0  0  0  0  0  0  0  0  0  0  0
   30.2980    2.3331   37.6835 H   0  0  0  0  0  0  0  0  0  0  0  0
   33.6040    1.1944   38.1336 H   0  0  0  0  0  0  0  0  0  0  0  0
   34.3042   -0.5975   39.6437 H   0  0  0  0  0  0  0  0  0  0  0  0
   33.6026   -2.2451   41.3557 H   0  0  0  0  0  0  0  0  0  0  0  0
   31.9533   -2.8496   41.4319 H   0  0  0  0  0  0  0  0  0  0  0  0
   35.4290   -2.6029   40.1625 N   0  0  0  0  0  0  0  0  0  0  0  0
   38.1215   -2.2429   38.3541 H   0  0  0  0  0  0  0  0  0  0  0  0
   37.4130    1.4132   40.1797 H   0  0  0  0  0  0  0  0  0  0  0  0
   36.3229    0.4691   39.1502 H   0  0  0  0  0  0  0  0  0  0  0  0
   39.6308   -1.3037   39.0426 H   0  0  0  0  0  0  0  0  0  0  0  0
   40.5772    1.4614   35.5272 C   0  0  0  0  0  0  0  0  0  0  0  0
   39.8796    1.5596   34.6890 H   0  0  0  0  0  0  0  0  0  0  0  0
   41.3979    0.8093   35.2121 H   0  0  0  0  0  0  0  0  0  0  0  0
   40.9820    2.4548   35.7448 H   0  0  0  0  0  0  0  0  0  0  0  0
  1  2  1  0  0  0  0
  1  5  1  0  0  0  0
  2  3  2  0  0  0  0
  2 43  1  0  0  0  0
  3  4  1  0  0  0  0
  4  5  2  0  0  0  0
  4 42  1  0  0  0  0
  5  6  1  0  0  0  0
  6  7  1  0  0  0  0
  6 40  1  0  0  0  0
  6 41  1  0  0  0  0
  7  8  1  0  0  0  0
  8  9  1  0  0  0  0
  8 38  2  0  0  0  0
  9 10  1  0  0  0  0
  9 39  1  0  0  0  0
 10 11  2  0  0  0  0
 10 12  1  0  0  0  0
 12 13  2  0  0  0  0
 13 14  1  0  0  0  0
 13 38  1  0  0  0  0
 14 15  1  0  0  0  0
 15 16  1  0  0  0  0
 15 36  1  0  0  0  0
 15 37  1  0  0  0  0
 16 17  1  0  0  0  0
 16 21  2  0  0  0  0
 17 18  2  0  0  0  0
 17 35  1  0  0  0  0
 18 19  1  0  0  0  0
 18 34  1  0  0  0  0
 19 20  2  0  0  0  0
 19 24  1  0  0  0  0
 20 21  1  0  0  0  0
 20 23  1  0  0  0  0
 21 22  1  0  0  0  0
 24 25  1  0  0  0  0
 24 29  1  0  0  0  0
 24 33  1  0  0  0  0
 25 26  1  0  0  0  0
 25 27  1  0  0  0  0
 25 28  1  0  0  0  0
 29 30  1  0  0  0  0
 29 31  1  0  0  0  0
 29 32  1  0  0  0  0
 43 44  1  0  0  0  0
 43 45  1  0  0  0  0
 43 46  1  0  0  0  0
M  END
> <Gold.Goldscore.Fitness>
67.7756

> <Gold.Goldscore.External.HBond>
1.4847

> <Gold.Protein.ActiveResidues>
 GLU87   ILE88   VAL90   ASN91   ALA92   ASP94   ASN95   ARG98   ILE118  ASN120 
 LYS123  GLY124  ILE125  ILE141  PHE142  THR147  SER148  SER149  ASN150  TYR151 
 GLY160  GLY161  ARG162  ASN163  GLY164  TYR165  GLY166  ALA167  LYS168  LEU169 
 THR181  THR215  ILE217  ILE317  GLN376  LYS378  ILE33   TYR34   MG903  

> <Gold.Goldscore.Internal.HBond>
0.0

> <Gold.Goldscore.Internal.Torsion.Weighted>
-4.6232

> <Gold.Protein.RotatedTorsions>
[ 8833 2752 2751 2750 ] final  -92.65 input   60.00 | X-H torsion
[ 6906  969  968  965 ] final -179.89 input   59.99 | X-H torsion
[ 6910  975  974  971 ] final  -12.12 input   60.00 | X-H torsion
[ 6897  962  961  958 ] final   71.11 input   60.00 | X-H torsion
[ 9084 2997 2996 2994 ] final  -38.60 input   60.00 | X-H torsion
[ 7406 1497 1496 1493 ] final  170.76 input   60.00 | X-H torsion
[ 7140 1220 1219 1216 ] final  115.27 input   60.00 | X-H torsion
[ 6926  995  994  992 ] final   25.13 input   60.0

> <Gold.Goldscore.Constraint.Score>
0.0

> <Gold.Id.Protein>
1ZXM|1ZXM_protein|mol2

> <Gold.Protein.RotatedAtoms>
   40.6750    3.3830   41.8637 H   0  0  0  0  0  0  0  0  0  0  0  0  # atno 6897 bound_to 962 
   42.5663   -2.5035   38.2571 H   0  0  0  0  0  0  0  0  0  0  0  0  # atno 6906 bound_to 969 
   38.8111   -4.3840   40.0676 H   0  0  0  0  0  0  0  0  0  0  0  0  # atno 6910 bound_to 975 
   45.8911    1.1244   38.6740 H   0  0  0  0  0  0  0  0  0  0  0  0  # atno 6926 bound_to 995 
   28.0475    0.1168   43.0607 H   0  0  0  0  0  0  0  0  0  0  0  0  # atno 7140 bound_to 1220
   28.2838   -0.9017   41.0

> <Gold.Version>
5.3.0

> <Gold.Goldscore.Internal.Correction>
-0.0166

> <Gold.Goldscore.Internal.Vdw>
-1.3472

> <Gold.Goldscore.Internal.Vdw.Weighted>
-1.3472

> <Gold.Goldscore.External.HBond.Weighted>
1.4847

> <Gold.Goldscore.External.Vdw.Weighted>
72.2447

> <Gold.Goldscore.Internal.HBond.Weighted>
0.0

> <Gold.Goldscore.Hbonds>
donor molecule, donor type, donor heavy atom, donor atom, acceptor molecule, acceptor atom, score
      L1  H     1    27       P1   757  0.74

> <Gold.Goldscore.External.Vdw>
52.5416

> <Gold.Goldscore.Internal.Torsion>
-4.6232

> <Gold.Goldscore.Internal.Correction.Weighted>
-0.0166

> <Gold.Version>
5.3.0

> <Gold.Id.Protein>
1ZXM|1ZXM_protein|mol2

> <Gold.ASP.Fitness>
26.6836

> <Gold.ASP.ASP>
28.2620

> <Gold.ASP.Map>
-141.3100

> <Gold.ASP.DEClash>
0.6402

> <Gold.ASP.DEInternal>
0.9382

> <Gold.ASP.Internal.Correction>
0.1091

> <Gold.Protein.RotatedTorsions>
[ 8924 2752 2751 2750 ] final   60.82 input   60.00 | X-H torsion
[ 6908  969  968  965 ] final  129.30 input   59.99 | X-H torsion
[ 6912  975  974  971 ] final -120.51 input   60.00 | X-H torsion
[ 6899  962  961  958 ] final  -58.61 input   60.00 | X-H torsion
[ 9165 2997 2996 2994 ] final  108.58 input   60.00 | X-H torsion
[ 7410 1497 1496 1493 ] final   79.06 input   60.00 | X-H torsion
[ 7137 1220 1219 1216 ] final  139.35 input   60.00 | X-H torsion
[ 6928  995  994  992 ] final  -85.39 input   60.00 | X-H torsion

> <Gold.Protein.ActiveResidues>
 GLU87   ILE88   VAL90   ASN91   ALA92   ASP94   ASN95   ARG98   ILE118  ASN120 
 LYS123  GLY124  ILE125  ILE141  PHE142  THR147  SER148  SER149  ASN150  TYR151 
 GLY160  GLY161  ARG162  ASN163  GLY164  TYR165  GLY166  ALA167  LYS168  LEU169 
 THR181  THR215  ILE217  ILE317  GLN376  LYS378  ILE33   TYR34   MG903  

> <Gold.Protein.RotatedAtoms>
   41.9551    4.4915   41.9390 H   0  0  0  0  0  0  0  0  0  0  0  0  # atno 6899 bound_to 962 
   41.8763   -2.1181   38.1128 H   0  0  0  0  0  0  0  0  0  0  0  0  # atno 6908 bound_to 969 
   37.4979   -4.1293   40.7861 H   0  0  0  0  0  0  0  0  0  0  0  0  # atno 6912 bound_to 975 
   46.9840    1.4352   39.7115 H   0  0  0  0  0  0  0  0  0  0  0  0  # atno 6928 bound_to 995 
   28.3646    0.0904   43.2872 H   0  0  0  0  0  0  0  0  0  0  0  0  # atno 7137 bound_to 1220
   27.0046   -1.2721   41.2349 H   0  0  0  0  0  0  0  0  0  0  0  0  # atno 7410 bound_to 1497
   43.7833    0.4176   29.4757 H   0  0  0  0  0  0  0  0  0  0  0  0  # atno 8924 bound_to 2752
   43.2870    0.0684   31.0181 H   0  0  0  0  0  0  0  0  0  0  0  0  # atno 8925 bound_to 2752
   43.9441   -1.1214   30.0695 H   0  0  0  0  0  0  0  0  0  0  0  0  # atno 8926 bound_to 2752
   34.6189   -5.3090   44.7162 H   0  0  0  0  0  0  0  0  0  0  0  0  # atno 9165 bound_to 2997
   41.1153   -2.7117   39.4230 LP  0  0  0  0  0  0  0  0  0  0  0  0  # atno 11896 bound_to 969 
   42.6610   -3.1359   39.1110 LP  0  0  0  0  0  0  0  0  0  0  0  0  # atno 11897 bound_to 969 
   37.8173   -5.7034   40.5252 LP  0  0  0  0  0  0  0  0  0  0  0  0  # atno 11898 bound_to 975 
   38.8696   -4.5598   40.0239 LP  0  0  0  0  0  0  0  0  0  0  0  0  # atno 11899 bound_to 975 
   40.6914    4.4631   42.9639 LP  0  0  0  0  0  0  0  0  0  0  0  0  # atno 11904 bound_to 962 
   40.7889    3.3719   41.7530 LP  0  0  0  0  0  0  0  0  0  0  0  0  # atno 11905 bound_to 962 
   34.3597   -3.9349   43.8838 LP  0  0  0  0  0  0  0  0  0  0  0  0  # atno 11912 bound_to 2997
   33.8052   -4.0838   45.4126 LP  0  0  0  0  0  0  0  0  0  0  0  0  # atno 11913 bound_to 2997
   27.1934    0.0902   42.1045 LP  0  0  0  0  0  0  0  0  0  0  0  0  # atno 11922 bound_to 1497
   28.4500   -0.5252   41.2626 LP  0  0  0  0  0  0  0  0  0  0  0  0  # atno 11923 bound_to 1497
   26.7750   -0.0213   43.6165 LP  0  0  0  0  0  0  0  0  0  0  0  0  # atno 11930 bound_to 1220
   27.8731   -0.1809   44.8145 LP  0  0  0  0  0  0  0  0  0  0  0  0  # atno 11931 bound_to 1220

$$$$
****|SGG-4|sdf|1|dock90
  -GOLD-   9 72311513D 1   1.00000     0.00000

 46 48  0  0  0  0  0  0  0  0  1 V2000
   38.6026    0.1172   38.0056 S   0  0  0  0  0  0  0  0  0  0  0  0
   39.5906    0.6456   36.7033 C   0  0  0  0  0  0  0  0  0  0  0  0
   39.5364    1.9325   36.4371 N   0  0  0  0  0  0  0  0  0  0  0  0
   38.6630    2.5498   37.3099 C   0  0  0  0  0  0  0  0  0  0  0  0
   38.0563    1.7278   38.2406 C   0  0  0  0  0  0  0  0  0  0  0  0
   37.0488    2.0551   39.2950 C   0  0  0  0  0  0  0  0  0  0  0  0
   35.4487    1.2568   38.9448 S   0  0  0  0  0  0  0  0  0  0  0  0
   35.6705   -0.2227   39.8680 C   0  0  0  0  0  0  0  0  0  0  0  0
   36.8946   -0.4591   40.4749 N   0  0  0  0  0  0  0  0  0  0  0  0
   37.0957   -1.6278   41.1988 C   0  0  0  0  0  0  0  0  0  0  0  0
   38.3216   -1.8691   41.8229 O   0  0  0  0  0  0  0  0  0  0  0  0
   36.1089   -2.5252   41.2859 N   0  0  0  0  0  0  0  0  0  0  0  0
   34.9604   -2.2285   40.6659 C   0  0  0  0  0  0  0  0  0  0  0  0
   33.6846   -3.4576   40.7357 S   0  0  0  0  0  0  0  0  0  0  0  0
   33.3608   -3.5213   38.9547 C   0  0  0  0  0  0  0  0  0  0  0  0
   32.6029   -2.3130   38.4666 C   0  0  0  0  0  0  0  0  0  0  0  0
   31.2050   -2.3228   38.3925 C   0  0  0  0  0  0  0  0  0  0  0  0
   30.5064   -1.1882   37.9677 C   0  0  0  0  0  0  0  0  0  0  0  0
   31.1895   -0.0233   37.5910 C   0  0  0  0  0  0  0  0  0  0  0  0
   32.5902   -0.0218   37.6557 C   0  0  0  0  0  0  0  0  0  0  0  0
   33.2890   -1.1528   38.0851 C   0  0  0  0  0  0  0  0  0  0  0  0
   34.3761   -1.1211   38.1230 H   0  0  0  0  0  0  0  0  0  0  0  0
   33.1528    0.8663   37.3754 H   0  0  0  0  0  0  0  0  0  0  0  0
   30.4620    1.2371   37.1564 C   0  0  0  0  0  0  0  0  0  0  0  0
   29.5327    0.9384   35.9780 C   0  0  0  0  0  0  0  0  0  0  0  0
   30.0914    0.6092   35.0949 H   0  0  0  0  0  0  0  0  0  0  0  0
   28.8176    0.1481   36.2330 H   0  0  0  0  0  0  0  0  0  0  0  0
   28.9598    1.8299   35.7013 H   0  0  0  0  0  0  0  0  0  0  0  0
   31.4075    2.3939   36.8216 C   0  0  0  0  0  0  0  0  0  0  0  0
   31.9563    2.2224   35.8894 H   0  0  0  0  0  0  0  0  0  0  0  0
   32.1397    2.5466   37.6219 H   0  0  0  0  0  0  0  0  0  0  0  0
   30.8429    3.3250   36.7013 H   0  0  0  0  0  0  0  0  0  0  0  0
   29.8376    1.5790   37.9930 H   0  0  0  0  0  0  0  0  0  0  0  0
   29.4201   -1.2262   37.9429 H   0  0  0  0  0  0  0  0  0  0  0  0
   30.6458   -3.2127   38.6733 H   0  0  0  0  0  0  0  0  0  0  0  0
   32.7831   -4.4204   38.7076 H   0  0  0  0  0  0  0  0  0  0  0  0
   34.3145   -3.6059   38.4202 H   0  0  0  0  0  0  0  0  0  0  0  0
   34.6912   -1.1222   39.9624 N   0  0  0  0  0  0  0  0  0  0  0  0
   37.6338    0.2239   40.3858 H   0  0  0  0  0  0  0  0  0  0  0  0
   37.4209    1.6996   40.2631 H   0  0  0  0  0  0  0  0  0  0  0  0
   36.8986    3.1376   39.3694 H   0  0  0  0  0  0  0  0  0  0  0  0
   38.5038    3.6181   37.2208 H   0  0  0  0  0  0  0  0  0  0  0  0
   40.4190   -0.3334   35.9490 C   0  0  0  0  0  0  0  0  0  0  0  0
   41.0771   -0.8813   36.6312 H   0  0  0  0  0  0  0  0  0  0  0  0
   41.0447    0.1853   35.2159 H   0  0  0  0  0  0  0  0  0  0  0  0
   39.7963   -1.0647   35.4240 H   0  0  0  0  0  0  0  0  0  0  0  0
  1  2  1  0  0  0  0
  1  5  1  0  0  0  0
  2  3  2  0  0  0  0
  2 43  1  0  0  0  0
  3  4  1  0  0  0  0
  4  5  2  0  0  0  0
  4 42  1  0  0  0  0
  5  6  1  0  0  0  0
  6  7  1  0  0  0  0
  6 40  1  0  0  0  0
  6 41  1  0  0  0  0
  7  8  1  0  0  0  0
  8  9  1  0  0  0  0
  8 38  2  0  0  0  0
  9 10  1  0  0  0  0
  9 39  1  0  0  0  0
 10 11  2  0  0  0  0
 10 12  1  0  0  0  0
 12 13  2  0  0  0  0
 13 14  1  0  0  0  0
 13 38  1  0  0  0  0
 14 15  1  0  0  0  0
 15 16  1  0  0  0  0
 15 36  1  0  0  0  0
 15 37  1  0  0  0  0
 16 17  1  0  0  0  0
 16 21  2  0  0  0  0
 17 18  2  0  0  0  0
 17 35  1  0  0  0  0
 18 19  1  0  0  0  0
 18 34  1  0  0  0  0
 19 20  2  0  0  0  0
 19 24  1  0  0  0  0
 20 21  1  0  0  0  0
 20 23  1  0  0  0  0
 21 22  1  0  0  0  0
 24 25  1  0  0  0  0
 24 29  1  0  0  0  0
 24 33  1  0  0  0  0
 25 26  1  0  0  0  0
 25 27  1  0  0  0  0
 25 28  1  0  0  0  0
 29 30  1  0  0  0  0
 29 31  1  0  0  0  0
 29 32  1  0  0  0  0
 43 44  1  0  0  0  0
 43 45  1  0  0  0  0
 43 46  1  0  0  0  0
M  END
> <Gold.Goldscore.Fitness>
67.7756

> <Gold.Goldscore.External.HBond>
1.4847

> <Gold.Protein.ActiveResidues>
 GLU87   ILE88   VAL90   ASN91   ALA92   ASP94   ASN95   ARG98   ILE118  ASN120 
 LYS123  GLY124  ILE125  ILE141  PHE142  THR147  SER148  SER149  ASN150  TYR151 
 GLY160  GLY161  ARG162  ASN163  GLY164  TYR165  GLY166  ALA167  LYS168  LEU169 
 THR181  THR215  ILE217  ILE317  GLN376  LYS378  ILE33   TYR34   MG903  

> <Gold.Goldscore.Internal.HBond>
0.0

> <Gold.Goldscore.Internal.Torsion.Weighted>
-4.6232

> <Gold.Protein.RotatedTorsions>
[ 8833 2752 2751 2750 ] final  -92.65 input   60.00 | X-H torsion
[ 6906  969  968  965 ] final -179.89 input   59.99 | X-H torsion
[ 6910  975  974  971 ] final  -12.12 input   60.00 | X-H torsion
[ 6897  962  961  958 ] final   71.11 input   60.00 | X-H torsion
[ 9084 2997 2996 2994 ] final  -38.60 input   60.00 | X-H torsion
[ 7406 1497 1496 1493 ] final  170.76 input   60.00 | X-H torsion
[ 7140 1220 1219 1216 ] final  115.27 input   60.00 | X-H torsion
[ 6926  995  994  992 ] final   25.13 input   60.0

> <Gold.Goldscore.Constraint.Score>
0.0

> <Gold.Id.Protein>
1ZXM|1ZXM_protein|mol2

> <Gold.Protein.RotatedAtoms>
   40.6750    3.3830   41.8637 H   0  0  0  0  0  0  0  0  0  0  0  0  # atno 6897 bound_to 962 
   42.5663   -2.5035   38.2571 H   0  0  0  0  0  0  0  0  0  0  0  0  # atno 6906 bound_to 969 
   38.8111   -4.3840   40.0676 H   0  0  0  0  0  0  0  0  0  0  0  0  # atno 6910 bound_to 975 
   45.8911    1.1244   38.6740 H   0  0  0  0  0  0  0  0  0  0  0  0  # atno 6926 bound_to 995 
   28.0475    0.1168   43.0607 H   0  0  0  0  0  0  0  0  0  0  0  0  # atno 7140 bound_to 1220
   28.2838   -0.9017   41.0

> <Gold.Version>
5.3.0

> <Gold.Goldscore.Internal.Correction>
-0.0166

> <Gold.Goldscore.Internal.Vdw>
-1.3472

> <Gold.Goldscore.Internal.Vdw.Weighted>
-1.3472

> <Gold.Goldscore.External.HBond.Weighted>
1.4847

> <Gold.Goldscore.External.Vdw.Weighted>
72.2447

> <Gold.Goldscore.Internal.HBond.Weighted>
0.0

> <Gold.Goldscore.Hbonds>
donor molecule, donor type, donor heavy atom, donor atom, acceptor molecule, acceptor atom, score
      L1  H     1    27       P1   757  0.74

> <Gold.Goldscore.External.Vdw>
52.5416

> <Gold.Goldscore.Internal.Torsion>
-4.6232

> <Gold.Goldscore.Internal.Correction.Weighted>
-0.0166

> <Gold.Version>
5.3.0

> <Gold.Id.Protein>
1ZXM|1ZXM_protein|mol2

> <Gold.ASP.Fitness>
26.6428

> <Gold.ASP.ASP>
32.6520

> <Gold.ASP.Map>
-163.2600

> <Gold.ASP.DEClash>
1.2304

> <Gold.ASP.DEInternal>
4.7788

> <Gold.ASP.Internal.Correction>
0.1072

> <Gold.Protein.RotatedTorsions>
[ 8924 2752 2751 2750 ] final  -89.33 input   60.00 | X-H torsion
[ 6908  969  968  965 ] final  -50.96 input   59.99 | X-H torsion
[ 6912  975  974  971 ] final  -89.45 input   60.00 | X-H torsion
[ 6899  962  961  958 ] final -136.29 input   60.00 | X-H torsion
[ 9165 2997 2996 2994 ] final -167.88 input   60.00 | X-H torsion
[ 7410 1497 1496 1493 ] final -152.59 input   60.00 | X-H torsion
[ 7137 1220 1219 1216 ] final -172.74 input   60.00 | X-H torsion
[ 6928  995  994  992 ] final -105.42 input   60.00 | X-H torsion

> <Gold.Protein.ActiveResidues>
 GLU87   ILE88   VAL90   ASN91   ALA92   ASP94   ASN95   ARG98   ILE118  ASN120 
 LYS123  GLY124  ILE125  ILE141  PHE142  THR147  SER148  SER149  ASN150  TYR151 
 GLY160  GLY161  ARG162  ASN163  GLY164  TYR165  GLY166  ALA167  LYS168  LEU169 
 THR181  THR215  ILE217  ILE317  GLN376  LYS378  ILE33   TYR34   MG903  

> <Gold.Protein.RotatedAtoms>
   41.2655    4.8016   42.8374 H   0  0  0  0  0  0  0  0  0  0  0  0  # atno 6899 bound_to 962 
   41.8970   -3.1885   39.6490 H   0  0  0  0  0  0  0  0  0  0  0  0  # atno 6908 bound_to 969 
   37.8898   -3.8866   40.5893 H   0  0  0  0  0  0  0  0  0  0  0  0  # atno 6912 bound_to 975 
   46.8727    1.5119   40.0078 H   0  0  0  0  0  0  0  0  0  0  0  0  # atno 6928 bound_to 995 
   28.6036   -0.0189   44.0005 H   0  0  0  0  0  0  0  0  0  0  0  0  # atno 7137 bound_to 1220
   28.4495   -0.4108   41.3379 H   0  0  0  0  0  0  0  0  0  0  0  0  # atno 7410 bound_to 1497
   43.7634   -1.0997   30.5328 H   0  0  0  0  0  0  0  0  0  0  0  0  # atno 8924 bound_to 2752
   43.9586   -0.0125   29.2969 H   0  0  0  0  0  0  0  0  0  0  0  0  # atno 8925 bound_to 2752
   43.2924    0.4767   30.7336 H   0  0  0  0  0  0  0  0  0  0  0  0  # atno 8926 bound_to 2752
   33.9876   -4.6262   45.5474 H   0  0  0  0  0  0  0  0  0  0  0  0  # atno 9165 bound_to 2997
   42.6506   -2.5948   38.3345 LP  0  0  0  0  0  0  0  0  0  0  0  0  # atno 11896 bound_to 969 
   41.1049   -2.1748   38.6525 LP  0  0  0  0  0  0  0  0  0  0  0  0  # atno 11897 bound_to 969 
   37.4420   -5.4437   40.7409 LP  0  0  0  0  0  0  0  0  0  0  0  0  # atno 11898 bound_to 975 
   38.8502   -5.0639   40.0065 LP  0  0  0  0  0  0  0  0  0  0  0  0  # atno 11899 bound_to 975 
   40.3892    3.5517   42.2738 LP  0  0  0  0  0  0  0  0  0  0  0  0  # atno 11904 bound_to 962 
   41.7856    3.9709   41.5384 LP  0  0  0  0  0  0  0  0  0  0  0  0  # atno 11905 bound_to 962 
   34.7396   -5.0943   44.1823 LP  0  0  0  0  0  0  0  0  0  0  0  0  # atno 11912 bound_to 2997
   34.0611   -3.6120   44.2770 LP  0  0  0  0  0  0  0  0  0  0  0  0  # atno 11913 bound_to 2997
   27.1125   -1.3225   41.1671 LP  0  0  0  0  0  0  0  0  0  0  0  0  # atno 11922 bound_to 1497
   27.0756    0.0200   42.0961 LP  0  0  0  0  0  0  0  0  0  0  0  0  # atno 11923 bound_to 1497
   27.2836    0.0890   43.0550 LP  0  0  0  0  0  0  0  0  0  0  0  0  # atno 11930 bound_to 1220
   27.1238   -0.1810   44.6576 LP  0  0  0  0  0  0  0  0  0  0  0  0  # atno 11931 bound_to 1220

$$$$
****|SGG-4|sdf|1|dock60
  -GOLD-   9 72311483D 1   1.00000     0.00000

 46 48  0  0  0  0  0  0  0  0  1 V2000
   38.0867    0.3534   38.9773 S   0  0  0  0  0  0  0  0  0  0  0  0
   37.9274    1.8157   38.0898 C   0  0  0  0  0  0  0  0  0  0  0  0
   36.8242    2.4963   38.3129 N   0  0  0  0  0  0  0  0  0  0  0  0
   36.0488    1.8306   39.2408 C   0  0  0  0  0  0  0  0  0  0  0  0
   36.5677    0.6439   39.7229 C   0  0  0  0  0  0  0  0  0  0  0  0
   35.9860   -0.3309   40.6952 C   0  0  0  0  0  0  0  0  0  0  0  0
   36.9672   -1.8652   40.7533 S   0  0  0  0  0  0  0  0  0  0  0  0
   36.3645   -2.6339   39.2918 C   0  0  0  0  0  0  0  0  0  0  0  0
   37.1473   -2.6091   38.1476 N   0  0  0  0  0  0  0  0  0  0  0  0
   36.6849   -3.1995   36.9779 C   0  0  0  0  0  0  0  0  0  0  0  0
   37.4715   -3.1893   35.8237 O   0  0  0  0  0  0  0  0  0  0  0  0
   35.4763   -3.7699   36.9626 N   0  0  0  0  0  0  0  0  0  0  0  0
   34.7777   -3.7455   38.1041 C   0  0  0  0  0  0  0  0  0  0  0  0
   33.1507   -4.4478   38.0496 S   0  0  0  0  0  0  0  0  0  0  0  0
   32.4388   -3.4229   39.3625 C   0  0  0  0  0  0  0  0  0  0  0  0
   31.9278   -2.1024   38.8450 C   0  0  0  0  0  0  0  0  0  0  0  0
   32.4347   -0.8932   39.3354 C   0  0  0  0  0  0  0  0  0  0  0  0
   31.9780    0.3279   38.8295 C   0  0  0  0  0  0  0  0  0  0  0  0
   30.9920    0.3691   37.8337 C   0  0  0  0  0  0  0  0  0  0  0  0
   30.4787   -0.8442   37.3536 C   0  0  0  0  0  0  0  0  0  0  0  0
   30.9380   -2.0649   37.8544 C   0  0  0  0  0  0  0  0  0  0  0  0
   30.5190   -2.9896   37.4626 H   0  0  0  0  0  0  0  0  0  0  0  0
   29.7159   -0.8501   36.5777 H   0  0  0  0  0  0  0  0  0  0  0  0
   30.4969    1.6757   37.2383 C   0  0  0  0  0  0  0  0  0  0  0  0
   29.3496    1.4162   36.2595 C   0  0  0  0  0  0  0  0  0  0  0  0
   29.6756    0.8148   35.4037 H   0  0  0  0  0  0  0  0  0  0  0  0
   28.5295    0.8799   36.7501 H   0  0  0  0  0  0  0  0  0  0  0  0
   28.9482    2.3598   35.8749 H   0  0  0  0  0  0  0  0  0  0  0  0
   31.6061    2.4920   36.5694 C   0  0  0  0  0  0  0  0  0  0  0  0
   31.9490    2.0353   35.6349 H   0  0  0  0  0  0  0  0  0  0  0  0
   32.4717    2.5958   37.2327 H   0  0  0  0  0  0  0  0  0  0  0  0
   31.2460    3.4982   36.3278 H   0  0  0  0  0  0  0  0  0  0  0  0
   30.1031    2.2974   38.0539 H   0  0  0  0  0  0  0  0  0  0  0  0
   32.4100    1.2460   39.2199 H   0  0  0  0  0  0  0  0  0  0  0  0
   33.1972   -0.8911   40.1114 H   0  0  0  0  0  0  0  0  0  0  0  0
   33.1891   -3.2281   40.1387 H   0  0  0  0  0  0  0  0  0  0  0  0
   31.6247   -3.9756   39.8464 H   0  0  0  0  0  0  0  0  0  0  0  0
   35.1613   -3.2073   39.2679 N   0  0  0  0  0  0  0  0  0  0  0  0
   38.0521   -2.1604   38.1739 H   0  0  0  0  0  0  0  0  0  0  0  0
   35.9774    0.1254   41.6921 H   0  0  0  0  0  0  0  0  0  0  0  0
   34.9525   -0.5782   40.4295 H   0  0  0  0  0  0  0  0  0  0  0  0
   35.0991    2.2627   39.5339 H   0  0  0  0  0  0  0  0  0  0  0  0
   38.9889    2.2280   37.1323 C   0  0  0  0  0  0  0  0  0  0  0  0
   39.9589    2.2794   37.6375 H   0  0  0  0  0  0  0  0  0  0  0  0
   38.7657    3.2182   36.7227 H   0  0  0  0  0  0  0  0  0  0  0  0
   39.0792    1.5179   36.3041 H   0  0  0  0  0  0  0  0  0  0  0  0
  1  2  1  0  0  0  0
  1  5  1  0  0  0  0
  2  3  2  0  0  0  0
  2 43  1  0  0  0  0
  3  4  1  0  0  0  0
  4  5  2  0  0  0  0
  4 42  1  0  0  0  0
  5  6  1  0  0  0  0
  6  7  1  0  0  0  0
  6 40  1  0  0  0  0
  6 41  1  0  0  0  0
  7  8  1  0  0  0  0
  8  9  1  0  0  0  0
  8 38  2  0  0  0  0
  9 10  1  0  0  0  0
  9 39  1  0  0  0  0
 10 11  2  0  0  0  0
 10 12  1  0  0  0  0
 12 13  2  0  0  0  0
 13 14  1  0  0  0  0
 13 38  1  0  0  0  0
 14 15  1  0  0  0  0
 15 16  1  0  0  0  0
 15 36  1  0  0  0  0
 15 37  1  0  0  0  0
 16 17  1  0  0  0  0
 16 21  2  0  0  0  0
 17 18  2  0  0  0  0
 17 35  1  0  0  0  0
 18 19  1  0  0  0  0
 18 34  1  0  0  0  0
 19 20  2  0  0  0  0
 19 24  1  0  0  0  0
 20 21  1  0  0  0  0
 20 23  1  0  0  0  0
 21 22  1  0  0  0  0
 24 25  1  0  0  0  0
 24 29  1  0  0  0  0
 24 33  1  0  0  0  0
 25 26  1  0  0  0  0
 25 27  1  0  0  0  0
 25 28  1  0  0  0  0
 29 30  1  0  0  0  0
 29 31  1  0  0  0  0
 29 32  1  0  0  0  0
 43 44  1  0  0  0  0
 43 45  1  0  0  0  0
 43 46  1  0  0  0  0
M  END
> <Gold.Goldscore.Fitness>
67.7756

> <Gold.Goldscore.External.HBond>
1.4847

> <Gold.Protein.ActiveResidues>
 GLU87   ILE88   VAL90   ASN91   ALA92   ASP94   ASN95   ARG98   ILE118  ASN120 
 LYS123  GLY124  ILE125  ILE141  PHE142  THR147  SER148  SER149  ASN150  TYR151 
 GLY160  GLY161  ARG162  ASN163  GLY164  TYR165  GLY166  ALA167  LYS168  LEU169 
 THR181  THR215  ILE217  ILE317  GLN376  LYS378  ILE33   TYR34   MG903  

> <Gold.Goldscore.Internal.HBond>
0.0

> <Gold.Goldscore.Internal.Torsion.Weighted>
-4.6232

> <Gold.Protein.RotatedTorsions>
[ 8833 2752 2751 2750 ] final  -92.65 input   60.00 | X-H torsion
[ 6906  969  968  965 ] final -179.89 input   59.99 | X-H torsion
[ 6910  975  974  971 ] final  -12.12 input   60.00 | X-H torsion
[ 6897  962  961  958 ] final   71.11 input   60.00 | X-H torsion
[ 9084 2997 2996 2994 ] final  -38.60 input   60.00 | X-H torsion
[ 7406 1497 1496 1493 ] final  170.76 input   60.00 | X-H torsion
[ 7140 1220 1219 1216 ] final  115.27 input   60.00 | X-H torsion
[ 6926  995  994  992 ] final   25.13 input   60.0

> <Gold.Goldscore.Constraint.Score>
0.0

> <Gold.Id.Protein>
1ZXM|1ZXM_protein|mol2

> <Gold.Protein.RotatedAtoms>
   40.6750    3.3830   41.8637 H   0  0  0  0  0  0  0  0  0  0  0  0  # atno 6897 bound_to 962 
   42.5663   -2.5035   38.2571 H   0  0  0  0  0  0  0  0  0  0  0  0  # atno 6906 bound_to 969 
   38.8111   -4.3840   40.0676 H   0  0  0  0  0  0  0  0  0  0  0  0  # atno 6910 bound_to 975 
   45.8911    1.1244   38.6740 H   0  0  0  0  0  0  0  0  0  0  0  0  # atno 6926 bound_to 995 
   28.0475    0.1168   43.0607 H   0  0  0  0  0  0  0  0  0  0  0  0  # atno 7140 bound_to 1220
   28.2838   -0.9017   41.0

> <Gold.Version>
5.3.0

> <Gold.Goldscore.Internal.Correction>
-0.0166

> <Gold.Goldscore.Internal.Vdw>
-1.3472

> <Gold.Goldscore.Internal.Vdw.Weighted>
-1.3472

> <Gold.Goldscore.External.HBond.Weighted>
1.4847

> <Gold.Goldscore.External.Vdw.Weighted>
72.2447

> <Gold.Goldscore.Internal.HBond.Weighted>
0.0

> <Gold.Goldscore.Hbonds>
donor molecule, donor type, donor heavy atom, donor atom, acceptor molecule, acceptor atom, score
      L1  H     1    27       P1   757  0.74

> <Gold.Goldscore.External.Vdw>
52.5416

> <Gold.Goldscore.Internal.Torsion>
-4.6232

> <Gold.Goldscore.Internal.Correction.Weighted>
-0.0166

> <Gold.Version>
5.3.0

> <Gold.Id.Protein>
1ZXM|1ZXM_protein|mol2

> <Gold.ASP.Fitness>
26.6259

> <Gold.ASP.ASP>
30.9900

> <Gold.ASP.Map>
-154.9500

> <Gold.ASP.DEClash>
3.5532

> <Gold.ASP.DEInternal>
0.8110

> <Gold.ASP.Internal.Correction>
0.1091

> <Gold.Protein.RotatedTorsions>
[ 8924 2752 2751 2750 ] final  121.93 input   60.00 | X-H torsion
[ 6908  969  968  965 ] final  162.31 input   59.99 | X-H torsion
[ 6912  975  974  971 ] final -144.33 input   60.00 | X-H torsion
[ 6899  962  961  958 ] final  -13.63 input   60.00 | X-H torsion
[ 9165 2997 2996 2994 ] final  134.15 input   60.00 | X-H torsion
[ 7410 1497 1496 1493 ] final  -19.40 input   60.00 | X-H torsion
[ 7137 1220 1219 1216 ] final  168.85 input   60.00 | X-H torsion
[ 6928  995  994  992 ] final   46.24 input   60.00 | X-H torsion

> <Gold.Protein.ActiveResidues>
 GLU87   ILE88   VAL90   ASN91   ALA92   ASP94   ASN95   ARG98   ILE118  ASN120 
 LYS123  GLY124  ILE125  ILE141  PHE142  THR147  SER148  SER149  ASN150  TYR151 
 GLY160  GLY161  ARG162  ASN163  GLY164  TYR165  GLY166  ALA167  LYS168  LEU169 
 THR181  THR215  ILE217  ILE317  GLN376  LYS378  ILE33   TYR34   MG903  

> <Gold.Protein.RotatedAtoms>
   41.7584    3.9373   41.5302 H   0  0  0  0  0  0  0  0  0  0  0  0  # atno 6899 bound_to 962 
   42.3605   -2.3369   38.1395 H   0  0  0  0  0  0  0  0  0  0  0  0  # atno 6908 bound_to 969 
   37.3021   -4.4510   40.8734 H   0  0  0  0  0  0  0  0  0  0  0  0  # atno 6912 bound_to 975 
   45.5712    1.1480   38.7955 H   0  0  0  0  0  0  0  0  0  0  0  0  # atno 6928 bound_to 995 
   28.5849    0.0291   43.7055 H   0  0  0  0  0  0  0  0  0  0  0  0  # atno 7137 bound_to 1220
   26.9150   -0.1176   42.0532 H   0  0  0  0  0  0  0  0  0  0  0  0  # atno 7410 bound_to 1497
   43.3934    0.6938   30.3232 H   0  0  0  0  0  0  0  0  0  0  0  0  # atno 8924 bound_to 2752
   43.5670   -0.8544   30.8892 H   0  0  0  0  0  0  0  0  0  0  0  0  # atno 8925 bound_to 2752
   44.0540   -0.4748   29.3510 H   0  0  0  0  0  0  0  0  0  0  0  0  # atno 8926 bound_to 2752
   34.4469   -5.2611   45.0901 H   0  0  0  0  0  0  0  0  0  0  0  0  # atno 9165 bound_to 2997
   40.9923   -2.3817   39.0193 LP  0  0  0  0  0  0  0  0  0  0  0  0  # atno 11896 bound_to 969 
   42.2965   -3.2455   39.4880 LP  0  0  0  0  0  0  0  0  0  0  0  0  # atno 11897 bound_to 969 
   38.1592   -5.7276   40.3405 LP  0  0  0  0  0  0  0  0  0  0  0  0  # atno 11898 bound_to 975 
   38.7249   -4.2116   40.1208 LP  0  0  0  0  0  0  0  0  0  0  0  0  # atno 11899 bound_to 975 
   41.3024    4.8184   42.8200 LP  0  0  0  0  0  0  0  0  0  0  0  0  # atno 11904 bound_to 962 
   40.3761    3.5747   42.3085 LP  0  0  0  0  0  0  0  0  0  0  0  0  # atno 11905 bound_to 962 
   34.5529   -4.2918   43.7872 LP  0  0  0  0  0  0  0  0  0  0  0  0  # atno 11912 bound_to 2997
   33.7852   -3.7750   45.1327 LP  0  0  0  0  0  0  0  0  0  0  0  0  # atno 11913 bound_to 2997
   28.4277   -0.2383   41.4659 LP  0  0  0  0  0  0  0  0  0  0  0  0  # atno 11922 bound_to 1497
   27.3059   -1.3594   41.0770 LP  0  0  0  0  0  0  0  0  0  0  0  0  # atno 11923 bound_to 1497
   27.0325    0.0533   43.2183 LP  0  0  0  0  0  0  0  0  0  0  0  0  # atno 11930 bound_to 1220
   27.3938   -0.1937   44.7915 LP  0  0  0  0  0  0  0  0  0  0  0  0  # atno 11931 bound_to 1220

$$$$
****|SGG-4|sdf|1|dock57
  -GOLD-   9 72311483D 1   1.00000     0.00000

 46 48  0  0  0  0  0  0  0  0  1 V2000
   31.9572    1.1966   37.8005 S   0  0  0  0  0  0  0  0  0  0  0  0
   31.5879    2.3486   36.5808 C   0  0  0  0  0  0  0  0  0  0  0  0
   30.6171    2.0125   35.7595 N   0  0  0  0  0  0  0  0  0  0  0  0
   30.1270    0.7693   36.1057 C   0  0  0  0  0  0  0  0  0  0  0  0
   30.7273    0.1639   37.1934 C   0  0  0  0  0  0  0  0  0  0  0  0
   30.4701   -1.1743   37.8074 C   0  0  0  0  0  0  0  0  0  0  0  0
   30.3466   -1.0517   39.6212 S   0  0  0  0  0  0  0  0  0  0  0  0
   31.5769   -2.2276   40.0617 C   0  0  0  0  0  0  0  0  0  0  0  0
   32.0153   -2.2813   41.3761 N   0  0  0  0  0  0  0  0  0  0  0  0
   32.9960   -3.1944   41.7434 C   0  0  0  0  0  0  0  0  0  0  0  0
   33.4356   -3.2633   43.0674 O   0  0  0  0  0  0  0  0  0  0  0  0
   33.5230   -4.0013   40.8173 N   0  0  0  0  0  0  0  0  0  0  0  0
   33.0536   -3.8833   39.5694 C   0  0  0  0  0  0  0  0  0  0  0  0
   33.8087   -4.9142   38.3406 S   0  0  0  0  0  0  0  0  0  0  0  0
   34.0014   -3.6273   37.0806 C   0  0  0  0  0  0  0  0  0  0  0  0
   35.0014   -2.5743   37.4855 C   0  0  0  0  0  0  0  0  0  0  0  0
   36.3579   -2.7111   37.1677 C   0  0  0  0  0  0  0  0  0  0  0  0
   37.2756   -1.7162   37.5196 C   0  0  0  0  0  0  0  0  0  0  0  0
   36.8616   -0.5696   38.2121 C   0  0  0  0  0  0  0  0  0  0  0  0
   35.5039   -0.4422   38.5385 C   0  0  0  0  0  0  0  0  0  0  0  0
   34.5853   -1.4329   38.1828 C   0  0  0  0  0  0  0  0  0  0  0  0
   33.5385   -1.3057   38.4517 H   0  0  0  0  0  0  0  0  0  0  0  0
   35.1465    0.4365   39.0714 H   0  0  0  0  0  0  0  0  0  0  0  0
   37.8248    0.5454   38.5808 C   0  0  0  0  0  0  0  0  0  0  0  0
   38.9294    0.0159   39.4979 C   0  0  0  0  0  0  0  0  0  0  0  0
   38.5265   -0.3439   40.4511 H   0  0  0  0  0  0  0  0  0  0  0  0
   39.4643   -0.8167   39.0271 H   0  0  0  0  0  0  0  0  0  0  0  0
   39.6608    0.8014   39.7161 H   0  0  0  0  0  0  0  0  0  0  0  0
   37.1319    1.7570   39.2102 C   0  0  0  0  0  0  0  0  0  0  0  0
   36.7700    1.5464   40.2222 H   0  0  0  0  0  0  0  0  0  0  0  0
   36.2771    2.0785   38.6053 H   0  0  0  0  0  0  0  0  0  0  0  0
   37.8283    2.5998   39.2815 H   0  0  0  0  0  0  0  0  0  0  0  0
   38.3025    0.9052   37.6594 H   0  0  0  0  0  0  0  0  0  0  0  0
   38.3173   -1.8473   37.2376 H   0  0  0  0  0  0  0  0  0  0  0  0
   36.7117   -3.5911   36.6350 H   0  0  0  0  0  0  0  0  0  0  0  0
   33.0379   -3.1395   36.8882 H   0  0  0  0  0  0  0  0  0  0  0  0
   34.3097   -4.0932   36.1372 H   0  0  0  0  0  0  0  0  0  0  0  0
   32.1065   -3.0380   39.1454 N   0  0  0  0  0  0  0  0  0  0  0  0
   31.6159   -1.6533   42.0595 H   0  0  0  0  0  0  0  0  0  0  0  0
   29.5276   -1.5706   37.4114 H   0  0  0  0  0  0  0  0  0  0  0  0
   31.2664   -1.8814   37.5511 H   0  0  0  0  0  0  0  0  0  0  0  0
   29.3189    0.3454   35.5210 H   0  0  0  0  0  0  0  0  0  0  0  0
   32.3590    3.6180   36.4940 C   0  0  0  0  0  0  0  0  0  0  0  0
   32.3169    4.1554   37.4470 H   0  0  0  0  0  0  0  0  0  0  0  0
   31.9365    4.2656   35.7193 H   0  0  0  0  0  0  0  0  0  0  0  0
   33.4121    3.4320   36.2601 H   0  0  0  0  0  0  0  0  0  0  0  0
  1  2  1  0  0  0  0
  1  5  1  0  0  0  0
  2  3  2  0  0  0  0
  2 43  1  0  0  0  0
  3  4  1  0  0  0  0
  4  5  2  0  0  0  0
  4 42  1  0  0  0  0
  5  6  1  0  0  0  0
  6  7  1  0  0  0  0
  6 40  1  0  0  0  0
  6 41  1  0  0  0  0
  7  8  1  0  0  0  0
  8  9  1  0  0  0  0
  8 38  2  0  0  0  0
  9 10  1  0  0  0  0
  9 39  1  0  0  0  0
 10 11  2  0  0  0  0
 10 12  1  0  0  0  0
 12 13  2  0  0  0  0
 13 14  1  0  0  0  0
 13 38  1  0  0  0  0
 14 15  1  0  0  0  0
 15 16  1  0  0  0  0
 15 36  1  0  0  0  0
 15 37  1  0  0  0  0
 16 17  1  0  0  0  0
 16 21  2  0  0  0  0
 17 18  2  0  0  0  0
 17 35  1  0  0  0  0
 18 19  1  0  0  0  0
 18 34  1  0  0  0  0
 19 20  2  0  0  0  0
 19 24  1  0  0  0  0
 20 21  1  0  0  0  0
 20 23  1  0  0  0  0
 21 22  1  0  0  0  0
 24 25  1  0  0  0  0
 24 29  1  0  0  0  0
 24 33  1  0  0  0  0
 25 26  1  0  0  0  0
 25 27  1  0  0  0  0
 25 28  1  0  0  0  0
 29 30  1  0  0  0  0
 29 31  1  0  0  0  0
 29 32  1  0  0  0  0
 43 44  1  0  0  0  0
 43 45  1  0  0  0  0
 43 46  1  0  0  0  0
M  END
> <Gold.Goldscore.Fitness>
67.7756

> <Gold.Goldscore.External.HBond>
1.4847

> <Gold.Protein.ActiveResidues>
 GLU87   ILE88   VAL90   ASN91   ALA92   ASP94   ASN95   ARG98   ILE118  ASN120 
 LYS123  GLY124  ILE125  ILE141  PHE142  THR147  SER148  SER149  ASN150  TYR151 
 GLY160  GLY161  ARG162  ASN163  GLY164  TYR165  GLY166  ALA167  LYS168  LEU169 
 THR181  THR215  ILE217  ILE317  GLN376  LYS378  ILE33   TYR34   MG903  

> <Gold.Goldscore.Internal.HBond>
0.0

> <Gold.Goldscore.Internal.Torsion.Weighted>
-4.6232

> <Gold.Protein.RotatedTorsions>
[ 8833 2752 2751 2750 ] final  -92.65 input   60.00 | X-H torsion
[ 6906  969  968  965 ] final -179.89 input   59.99 | X-H torsion
[ 6910  975  974  971 ] final  -12.12 input   60.00 | X-H torsion
[ 6897  962  961  958 ] final   71.11 input   60.00 | X-H torsion
[ 9084 2997 2996 2994 ] final  -38.60 input   60.00 | X-H torsion
[ 7406 1497 1496 1493 ] final  170.76 input   60.00 | X-H torsion
[ 7140 1220 1219 1216 ] final  115.27 input   60.00 | X-H torsion
[ 6926  995  994  992 ] final   25.13 input   60.0

> <Gold.Goldscore.Constraint.Score>
0.0

> <Gold.Id.Protein>
1ZXM|1ZXM_protein|mol2

> <Gold.Protein.RotatedAtoms>
   40.6750    3.3830   41.8637 H   0  0  0  0  0  0  0  0  0  0  0  0  # atno 6897 bound_to 962 
   42.5663   -2.5035   38.2571 H   0  0  0  0  0  0  0  0  0  0  0  0  # atno 6906 bound_to 969 
   38.8111   -4.3840   40.0676 H   0  0  0  0  0  0  0  0  0  0  0  0  # atno 6910 bound_to 975 
   45.8911    1.1244   38.6740 H   0  0  0  0  0  0  0  0  0  0  0  0  # atno 6926 bound_to 995 
   28.0475    0.1168   43.0607 H   0  0  0  0  0  0  0  0  0  0  0  0  # atno 7140 bound_to 1220
   28.2838   -0.9017   41.0

> <Gold.Version>
5.3.0

> <Gold.Goldscore.Internal.Correction>
-0.0166

> <Gold.Goldscore.Internal.Vdw>
-1.3472

> <Gold.Goldscore.Internal.Vdw.Weighted>
-1.3472

> <Gold.Goldscore.External.HBond.Weighted>
1.4847

> <Gold.Goldscore.External.Vdw.Weighted>
72.2447

> <Gold.Goldscore.Internal.HBond.Weighted>
0.0

> <Gold.Goldscore.Hbonds>
donor molecule, donor type, donor heavy atom, donor atom, acceptor molecule, acceptor atom, score
      L1  H     1    27       P1   757  0.74

> <Gold.Goldscore.External.Vdw>
52.5416

> <Gold.Goldscore.Internal.Torsion>
-4.6232

> <Gold.Goldscore.Internal.Correction.Weighted>
-0.0166

> <Gold.Version>
5.3.0

> <Gold.Id.Protein>
1ZXM|1ZXM_protein|mol2

> <Gold.ASP.Fitness>
26.6169

> <Gold.ASP.ASP>
30.2740

> <Gold.ASP.Map>
-151.3700

> <Gold.ASP.DEClash>
2.5221

> <Gold.ASP.DEInternal>
1.1350

> <Gold.ASP.Internal.Correction>
0.1091

> <Gold.Protein.RotatedTorsions>
[ 8924 2752 2751 2750 ] final -159.35 input   60.00 | X-H torsion
[ 6908  969  968  965 ] final   61.16 input   59.99 | X-H torsion
[ 6912  975  974  971 ] final   72.08 input   60.00 | X-H torsion
[ 6899  962  961  958 ] final   69.11 input   60.00 | X-H torsion
[ 9165 2997 2996 2994 ] final  143.48 input   60.00 | X-H torsion
[ 7410 1497 1496 1493 ] final   84.78 input   60.00 | X-H torsion
[ 7137 1220 1219 1216 ] final  139.95 input   60.00 | X-H torsion
[ 6928  995  994  992 ] final -144.43 input   60.00 | X-H torsion

> <Gold.Protein.ActiveResidues>
 GLU87   ILE88   VAL90   ASN91   ALA92   ASP94   ASN95   ARG98   ILE118  ASN120 
 LYS123  GLY124  ILE125  ILE141  PHE142  THR147  SER148  SER149  ASN150  TYR151 
 GLY160  GLY161  ARG162  ASN163  GLY164  TYR165  GLY166  ALA167  LYS168  LEU169 
 THR181  THR215  ILE217  ILE317  GLN376  LYS378  ILE33   TYR34   MG903  

> <Gold.Protein.RotatedAtoms>
   40.6982    3.3798   41.8410 H   0  0  0  0  0  0  0  0  0  0  0  0  # atno 6899 bound_to 962 
   41.0591   -2.2280   38.7612 H   0  0  0  0  0  0  0  0  0  0  0  0  # atno 6908 bound_to 969 
   38.4792   -5.5895   40.1791 H   0  0  0  0  0  0  0  0  0  0  0  0  # atno 6912 bound_to 975 
   46.3974    1.6049   40.4031 H   0  0  0  0  0  0  0  0  0  0  0  0  # atno 6928 bound_to 995 
   28.3712    0.0895   43.2945 H   0  0  0  0  0  0  0  0  0  0  0  0  # atno 7137 bound_to 1220
   27.0792   -1.3038   41.1882 H   0  0  0  0  0  0  0  0  0  0  0  0  # atno 7410 bound_to 1497
   43.3414   -0.2496   31.0852 H   0  0  0  0  0  0  0  0  0  0  0  0  # atno 8924 bound_to 2752
   44.0251   -0.9992   29.7745 H   0  0  0  0  0  0  0  0  0  0  0  0  # atno 8925 bound_to 2752
   43.6479    0.6133   29.7037 H   0  0  0  0  0  0  0  0  0  0  0  0  # atno 8926 bound_to 2752
   34.3732   -5.2023   45.2096 H   0  0  0  0  0  0  0  0  0  0  0  0  # atno 9165 bound_to 2997
   42.0187   -3.2222   39.6207 LP  0  0  0  0  0  0  0  0  0  0  0  0  # atno 11896 bound_to 969 
   42.5807   -2.5147   38.2605 LP  0  0  0  0  0  0  0  0  0  0  0  0  # atno 11897 bound_to 969 
   38.4698   -3.9649   40.2712 LP  0  0  0  0  0  0  0  0  0  0  0  0  # atno 11898 bound_to 975 
   37.2288   -4.8278   40.8892 LP  0  0  0  0  0  0  0  0  0  0  0  0  # atno 11899 bound_to 975 
   41.9598    4.4075   41.8443 LP  0  0  0  0  0  0  0  0  0  0  0  0  # atno 11904 bound_to 962 
   40.7864    4.5470   42.9713 LP  0  0  0  0  0  0  0  0  0  0  0  0  # atno 11905 bound_to 962 
   34.6109   -4.4335   43.7951 LP  0  0  0  0  0  0  0  0  0  0  0  0  # atno 11912 bound_to 2997
   33.8015   -3.6926   45.0044 LP  0  0  0  0  0  0  0  0  0  0  0  0  # atno 11913 bound_to 2997
   27.1118    0.0435   42.1001 LP  0  0  0  0  0  0  0  0  0  0  0  0  # atno 11922 bound_to 1497
   28.4566   -0.4466   41.3140 LP  0  0  0  0  0  0  0  0  0  0  0  0  # atno 11923 bound_to 1497
   26.7781   -0.0197   43.6072 LP  0  0  0  0  0  0  0  0  0  0  0  0  # atno 11930 bound_to 1220
   27.8634   -0.1815   44.8165 LP  0  0  0  0  0  0  0  0  0  0  0  0  # atno 11931 bound_to 1220

$$$$
****|SGG-4|sdf|1|dock17
  -GOLD-   9 72311453D 1   1.00000     0.00000

 46 48  0  0  0  0  0  0  0  0  1 V2000
   34.8398   -2.8082   37.8783 S   0  0  0  0  0  0  0  0  0  0  0  0
   34.6735   -4.4508   38.3535 C   0  0  0  0  0  0  0  0  0  0  0  0
   35.6594   -5.2457   37.9985 N   0  0  0  0  0  0  0  0  0  0  0  0
   36.6112   -4.5231   37.3072 C   0  0  0  0  0  0  0  0  0  0  0  0
   36.3456   -3.1772   37.1407 C   0  0  0  0  0  0  0  0  0  0  0  0
   37.1326   -2.1270   36.4252 C   0  0  0  0  0  0  0  0  0  0  0  0
   38.6857   -1.7577   37.3036 S   0  0  0  0  0  0  0  0  0  0  0  0
   38.4393   -0.0409   37.5900 C   0  0  0  0  0  0  0  0  0  0  0  0
   39.2798    0.8713   36.9701 N   0  0  0  0  0  0  0  0  0  0  0  0
   39.1109    2.2323   37.1923 C   0  0  0  0  0  0  0  0  0  0  0  0
   39.9455    3.1589   36.5633 O   0  0  0  0  0  0  0  0  0  0  0  0
   38.1484    2.6487   38.0209 N   0  0  0  0  0  0  0  0  0  0  0  0
   37.3841    1.7072   38.5875 C   0  0  0  0  0  0  0  0  0  0  0  0
   36.1553    2.2716   39.7340 S   0  0  0  0  0  0  0  0  0  0  0  0
   35.9714    0.7067   40.6274 C   0  0  0  0  0  0  0  0  0  0  0  0
   34.7491   -0.0611   40.1926 C   0  0  0  0  0  0  0  0  0  0  0  0
   34.3587   -1.2287   40.8590 C   0  0  0  0  0  0  0  0  0  0  0  0
   33.2066   -1.9194   40.4698 C   0  0  0  0  0  0  0  0  0  0  0  0
   32.4276   -1.4687   39.3948 C   0  0  0  0  0  0  0  0  0  0  0  0
   32.8288   -0.3052   38.7228 C   0  0  0  0  0  0  0  0  0  0  0  0
   33.9764    0.3887   39.1141 C   0  0  0  0  0  0  0  0  0  0  0  0
   34.2626    1.2877   38.5717 H   0  0  0  0  0  0  0  0  0  0  0  0
   32.2456    0.0760   37.8871 H   0  0  0  0  0  0  0  0  0  0  0  0
   31.1531   -2.1752   38.9664 C   0  0  0  0  0  0  0  0  0  0  0  0
   30.5731   -1.5174   37.7125 C   0  0  0  0  0  0  0  0  0  0  0  0
   30.2780   -0.4790   37.8995 H   0  0  0  0  0  0  0  0  0  0  0  0
   31.3054   -1.5136   36.8972 H   0  0  0  0  0  0  0  0  0  0  0  0
   29.6888   -2.0614   37.3639 H   0  0  0  0  0  0  0  0  0  0  0  0
   30.1014   -2.2473   40.0767 C   0  0  0  0  0  0  0  0  0  0  0  0
   29.6540   -1.2698   40.2863 H   0  0  0  0  0  0  0  0  0  0  0  0
   30.5382   -2.6258   41.0073 H   0  0  0  0  0  0  0  0  0  0  0  0
   29.2886   -2.9230   39.7885 H   0  0  0  0  0  0  0  0  0  0  0  0
   31.4054   -3.2132   38.7102 H   0  0  0  0  0  0  0  0  0  0  0  0
   32.9232   -2.8106   41.0242 H   0  0  0  0  0  0  0  0  0  0  0  0
   34.9443   -1.6071   41.6940 H   0  0  0  0  0  0  0  0  0  0  0  0
   35.9024    0.8932   41.7061 H   0  0  0  0  0  0  0  0  0  0  0  0
   36.8703    0.0982   40.4724 H   0  0  0  0  0  0  0  0  0  0  0  0
   37.4804    0.3837   38.4128 N   0  0  0  0  0  0  0  0  0  0  0  0
   40.0113    0.5373   36.3584 H   0  0  0  0  0  0  0  0  0  0  0  0
   37.3695   -2.4872   35.4171 H   0  0  0  0  0  0  0  0  0  0  0  0
   36.5515   -1.2040   36.3246 H   0  0  0  0  0  0  0  0  0  0  0  0
   37.4927   -5.0367   36.9415 H   0  0  0  0  0  0  0  0  0  0  0  0
   33.4652   -4.8940   39.0999 C   0  0  0  0  0  0  0  0  0  0  0  0
   33.3383   -4.2969   40.0088 H   0  0  0  0  0  0  0  0  0  0  0  0
   33.5653   -5.9436   39.3936 H   0  0  0  0  0  0  0  0  0  0  0  0
   32.5586   -4.7832   38.4965 H   0  0  0  0  0  0  0  0  0  0  0  0
  1  2  1  0  0  0  0
  1  5  1  0  0  0  0
  2  3  2  0  0  0  0
  2 43  1  0  0  0  0
  3  4  1  0  0  0  0
  4  5  2  0  0  0  0
  4 42  1  0  0  0  0
  5  6  1  0  0  0  0
  6  7  1  0  0  0  0
  6 40  1  0  0  0  0
  6 41  1  0  0  0  0
  7  8  1  0  0  0  0
  8  9  1  0  0  0  0
  8 38  2  0  0  0  0
  9 10  1  0  0  0  0
  9 39  1  0  0  0  0
 10 11  2  0  0  0  0
 10 12  1  0  0  0  0
 12 13  2  0  0  0  0
 13 14  1  0  0  0  0
 13 38  1  0  0  0  0
 14 15  1  0  0  0  0
 15 16  1  0  0  0  0
 15 36  1  0  0  0  0
 15 37  1  0  0  0  0
 16 17  1  0  0  0  0
 16 21  2  0  0  0  0
 17 18  2  0  0  0  0
 17 35  1  0  0  0  0
 18 19  1  0  0  0  0
 18 34  1  0  0  0  0
 19 20  2  0  0  0  0
 19 24  1  0  0  0  0
 20 21  1  0  0  0  0
 20 23  1  0  0  0  0
 21 22  1  0  0  0  0
 24 25  1  0  0  0  0
 24 29  1  0  0  0  0
 24 33  1  0  0  0  0
 25 26  1  0  0  0  0
 25 27  1  0  0  0  0
 25 28  1  0  0  0  0
 29 30  1  0  0  0  0
 29 31  1  0  0  0  0
 29 32  1  0  0  0  0
 43 44  1  0  0  0  0
 43 45  1  0  0  0  0
 43 46  1  0  0  0  0
M  END
> <Gold.Goldscore.Fitness>
67.7756

> <Gold.Goldscore.External.HBond>
1.4847

> <Gold.Protein.ActiveResidues>
 GLU87   ILE88   VAL90   ASN91   ALA92   ASP94   ASN95   ARG98   ILE118  ASN120 
 LYS123  GLY124  ILE125  ILE141  PHE142  THR147  SER148  SER149  ASN150  TYR151 
 GLY160  GLY161  ARG162  ASN163  GLY164  TYR165  GLY166  ALA167  LYS168  LEU169 
 THR181  THR215  ILE217  ILE317  GLN376  LYS378  ILE33   TYR34   MG903  

> <Gold.Goldscore.Internal.HBond>
0.0

> <Gold.Goldscore.Internal.Torsion.Weighted>
-4.6232

> <Gold.Protein.RotatedTorsions>
[ 8833 2752 2751 2750 ] final  -92.65 input   60.00 | X-H torsion
[ 6906  969  968  965 ] final -179.89 input   59.99 | X-H torsion
[ 6910  975  974  971 ] final  -12.12 input   60.00 | X-H torsion
[ 6897  962  961  958 ] final   71.11 input   60.00 | X-H torsion
[ 9084 2997 2996 2994 ] final  -38.60 input   60.00 | X-H torsion
[ 7406 1497 1496 1493 ] final  170.76 input   60.00 | X-H torsion
[ 7140 1220 1219 1216 ] final  115.27 input   60.00 | X-H torsion
[ 6926  995  994  992 ] final   25.13 input   60.0

> <Gold.Goldscore.Constraint.Score>
0.0

> <Gold.Id.Protein>
1ZXM|1ZXM_protein|mol2

> <Gold.Protein.RotatedAtoms>
   40.6750    3.3830   41.8637 H   0  0  0  0  0  0  0  0  0  0  0  0  # atno 6897 bound_to 962 
   42.5663   -2.5035   38.2571 H   0  0  0  0  0  0  0  0  0  0  0  0  # atno 6906 bound_to 969 
   38.8111   -4.3840   40.0676 H   0  0  0  0  0  0  0  0  0  0  0  0  # atno 6910 bound_to 975 
   45.8911    1.1244   38.6740 H   0  0  0  0  0  0  0  0  0  0  0  0  # atno 6926 bound_to 995 
   28.0475    0.1168   43.0607 H   0  0  0  0  0  0  0  0  0  0  0  0  # atno 7140 bound_to 1220
   28.2838   -0.9017   41.0

> <Gold.Version>
5.3.0

> <Gold.Goldscore.Internal.Correction>
-0.0166

> <Gold.Goldscore.Internal.Vdw>
-1.3472

> <Gold.Goldscore.Internal.Vdw.Weighted>
-1.3472

> <Gold.Goldscore.External.HBond.Weighted>
1.4847

> <Gold.Goldscore.External.Vdw.Weighted>
72.2447

> <Gold.Goldscore.Internal.HBond.Weighted>
0.0

> <Gold.Goldscore.Hbonds>
donor molecule, donor type, donor heavy atom, donor atom, acceptor molecule, acceptor atom, score
      L1  H     1    27       P1   757  0.74

> <Gold.Goldscore.External.Vdw>
52.5416

> <Gold.Goldscore.Internal.Torsion>
-4.6232

> <Gold.Goldscore.Internal.Correction.Weighted>
-0.0166

> <Gold.Version>
5.3.0

> <Gold.Id.Protein>
1ZXM|1ZXM_protein|mol2

> <Gold.ASP.Fitness>
26.4498

> <Gold.ASP.ASP>
32.4020

> <Gold.ASP.Map>
-162.0100

> <Gold.ASP.DEClash>
4.9359

> <Gold.ASP.DEInternal>
1.0163

> <Gold.ASP.Internal.Correction>
0.1091

> <Gold.Protein.RotatedTorsions>
[ 8924 2752 2751 2750 ] final  100.12 input   60.00 | X-H torsion
[ 6908  969  968  965 ] final  102.35 input   59.99 | X-H torsion
[ 6912  975  974  971 ] final   75.27 input   60.00 | X-H torsion
[ 6899  962  961  958 ] final  -35.51 input   60.00 | X-H torsion
[ 9165 2997 2996 2994 ] final  -49.98 input   60.00 | X-H torsion
[ 7410 1497 1496 1493 ] final -115.70 input   60.00 | X-H torsion
[ 7137 1220 1219 1216 ] final -131.18 input   60.00 | X-H torsion
[ 6928  995  994  992 ] final -173.35 input   60.00 | X-H torsion

> <Gold.Protein.ActiveResidues>
 GLU87   ILE88   VAL90   ASN91   ALA92   ASP94   ASN95   ARG98   ILE118  ASN120 
 LYS123  GLY124  ILE125  ILE141  PHE142  THR147  SER148  SER149  ASN150  TYR151 
 GLY160  GLY161  ARG162  ASN163  GLY164  TYR165  GLY166  ALA167  LYS168  LEU169 
 THR181  THR215  ILE217  ILE317  GLN376  LYS378  ILE33   TYR34   MG903  

> <Gold.Protein.RotatedAtoms>
   41.9123    4.2153   41.6890 H   0  0  0  0  0  0  0  0  0  0  0  0  # atno 6899 bound_to 962 
   41.4757   -2.0659   38.2773 H   0  0  0  0  0  0  0  0  0  0  0  0  # atno 6908 bound_to 969 
   38.4389   -5.6159   40.1992 H   0  0  0  0  0  0  0  0  0  0  0  0  # atno 6912 bound_to 975 
   45.9330    1.6063   40.4577 H   0  0  0  0  0  0  0  0  0  0  0  0  # atno 6928 bound_to 995 
   28.3085   -0.1257   44.5858 H   0  0  0  0  0  0  0  0  0  0  0  0  # atno 7137 bound_to 1220
   28.2563    0.0193   41.6964 H   0  0  0  0  0  0  0  0  0  0  0  0  # atno 7410 bound_to 1497
   43.5177    0.7104   29.9836 H   0  0  0  0  0  0  0  0  0  0  0  0  # atno 8924 bound_to 2752
   43.4328   -0.5578   31.0475 H   0  0  0  0  0  0  0  0  0  0  0  0  # atno 8925 bound_to 2752
   44.0639   -0.7880   29.5323 H   0  0  0  0  0  0  0  0  0  0  0  0  # atno 8926 bound_to 2752
   34.0488   -3.6077   44.3096 H   0  0  0  0  0  0  0  0  0  0  0  0  # atno 9165 bound_to 2997
   41.4043   -2.9723   39.6270 LP  0  0  0  0  0  0  0  0  0  0  0  0  # atno 11896 bound_to 969 
   42.7756   -2.9278   38.7415 LP  0  0  0  0  0  0  0  0  0  0  0  0  # atno 11897 bound_to 969 
   38.5095   -3.9909   40.2485 LP  0  0  0  0  0  0  0  0  0  0  0  0  # atno 11898 bound_to 975 
   37.2298   -4.7753   40.8916 LP  0  0  0  0  0  0  0  0  0  0  0  0  # atno 11899 bound_to 975 
   40.9931    4.6894   42.9454 LP  0  0  0  0  0  0  0  0  0  0  0  0  # atno 11904 bound_to 962 
   40.5303    3.4237   42.0232 LP  0  0  0  0  0  0  0  0  0  0  0  0  # atno 11905 bound_to 962 
   33.9982   -4.6596   45.5502 LP  0  0  0  0  0  0  0  0  0  0  0  0  # atno 11912 bound_to 2997
   34.7409   -5.0724   44.1557 LP  0  0  0  0  0  0  0  0  0  0  0  0  # atno 11913 bound_to 2997
   27.6783   -1.3214   40.9780 LP  0  0  0  0  0  0  0  0  0  0  0  0  # atno 11922 bound_to 1497
   26.7045   -0.4142   41.9242 LP  0  0  0  0  0  0  0  0  0  0  0  0  # atno 11923 bound_to 1497
   27.9508    0.1183   43.0173 LP  0  0  0  0  0  0  0  0  0  0  0  0  # atno 11930 bound_to 1220
   26.7538   -0.1028   44.1058 LP  0  0  0  0  0  0  0  0  0  0  0  0  # atno 11931 bound_to 1220

$$$$
****|SGG-4|sdf|1|dock67
  -GOLD-   9 72311493D 1   1.00000     0.00000

 46 48  0  0  0  0  0  0  0  0  1 V2000
   40.6487   -0.6962   36.0163 S   0  0  0  0  0  0  0  0  0  0  0  0
   40.7189    0.8165   35.2049 C   0  0  0  0  0  0  0  0  0  0  0  0
   40.0639    1.8000   35.7825 N   0  0  0  0  0  0  0  0  0  0  0  0
   39.4653    1.3417   36.9390 C   0  0  0  0  0  0  0  0  0  0  0  0
   39.6698    0.0081   37.2383 C   0  0  0  0  0  0  0  0  0  0  0  0
   39.1484   -0.8090   38.3761 C   0  0  0  0  0  0  0  0  0  0  0  0
   37.4628   -0.2930   38.8369 S   0  0  0  0  0  0  0  0  0  0  0  0
   36.6615   -1.8551   38.7468 C   0  0  0  0  0  0  0  0  0  0  0  0
   37.0751   -2.7683   37.7889 N   0  0  0  0  0  0  0  0  0  0  0  0
   36.4473   -4.0039   37.6917 C   0  0  0  0  0  0  0  0  0  0  0  0
   36.8648   -4.9344   36.7374 O   0  0  0  0  0  0  0  0  0  0  0  0
   35.4334   -4.2926   38.5134 N   0  0  0  0  0  0  0  0  0  0  0  0
   35.0873   -3.3561   39.4049 C   0  0  0  0  0  0  0  0  0  0  0  0
   33.6990   -3.7281   40.4428 S   0  0  0  0  0  0  0  0  0  0  0  0
   33.3185   -2.0174   40.9006 C   0  0  0  0  0  0  0  0  0  0  0  0
   32.6780   -1.2511   39.7712 C   0  0  0  0  0  0  0  0  0  0  0  0
   31.5211   -1.7282   39.1439 C   0  0  0  0  0  0  0  0  0  0  0  0
   30.9148   -0.9973   38.1172 C   0  0  0  0  0  0  0  0  0  0  0  0
   31.4602    0.2189   37.6824 C   0  0  0  0  0  0  0  0  0  0  0  0
   32.6256    0.6872   38.3058 C   0  0  0  0  0  0  0  0  0  0  0  0
   33.2292   -0.0394   39.3352 C   0  0  0  0  0  0  0  0  0  0  0  0
   34.1339    0.3497   39.7982 H   0  0  0  0  0  0  0  0  0  0  0  0
   33.0738    1.6294   37.9972 H   0  0  0  0  0  0  0  0  0  0  0  0
   30.8100    1.0544   36.5934 C   0  0  0  0  0  0  0  0  0  0  0  0
   31.6357    2.3136   36.3211 C   0  0  0  0  0  0  0  0  0  0  0  0
   31.6786    2.9675   37.1991 H   0  0  0  0  0  0  0  0  0  0  0  0
   32.6651    2.0559   36.0475 H   0  0  0  0  0  0  0  0  0  0  0  0
   31.2045    2.8877   35.4941 H   0  0  0  0  0  0  0  0  0  0  0  0
   29.3542    1.4164   36.8996 C   0  0  0  0  0  0  0  0  0  0  0  0
   29.2723    2.1526   37.7064 H   0  0  0  0  0  0  0  0  0  0  0  0
   28.7822    0.5291   37.1921 H   0  0  0  0  0  0  0  0  0  0  0  0
   28.8744    1.8480   36.0142 H   0  0  0  0  0  0  0  0  0  0  0  0
   30.7943    0.4614   35.6689 H   0  0  0  0  0  0  0  0  0  0  0  0
   30.0056   -1.3890   37.6678 H   0  0  0  0  0  0  0  0  0  0  0  0
   31.0759   -2.6707   39.4549 H   0  0  0  0  0  0  0  0  0  0  0  0
   34.2340   -1.4947   41.2035 H   0  0  0  0  0  0  0  0  0  0  0  0
   32.6561   -2.0195   41.7744 H   0  0  0  0  0  0  0  0  0  0  0  0
   35.6510   -2.1526   39.5637 N   0  0  0  0  0  0  0  0  0  0  0  0
   37.8337   -2.5269   37.1666 H   0  0  0  0  0  0  0  0  0  0  0  0
   39.1295   -1.8633   38.0757 H   0  0  0  0  0  0  0  0  0  0  0  0
   39.8005   -0.7205   39.2518 H   0  0  0  0  0  0  0  0  0  0  0  0
   38.8821    2.0341   37.5347 H   0  0  0  0  0  0  0  0  0  0  0  0
   41.4700    0.9447   33.9270 C   0  0  0  0  0  0  0  0  0  0  0  0
   42.5068    0.6191   34.0601 H   0  0  0  0  0  0  0  0  0  0  0  0
   41.4808    1.9883   33.5971 H   0  0  0  0  0  0  0  0  0  0  0  0
   41.0246    0.3315   33.1371 H   0  0  0  0  0  0  0  0  0  0  0  0
  1  2  1  0  0  0  0
  1  5  1  0  0  0  0
  2  3  2  0  0  0  0
  2 43  1  0  0  0  0
  3  4  1  0  0  0  0
  4  5  2  0  0  0  0
  4 42  1  0  0  0  0
  5  6  1  0  0  0  0
  6  7  1  0  0  0  0
  6 40  1  0  0  0  0
  6 41  1  0  0  0  0
  7  8  1  0  0  0  0
  8  9  1  0  0  0  0
  8 38  2  0  0  0  0
  9 10  1  0  0  0  0
  9 39  1  0  0  0  0
 10 11  2  0  0  0  0
 10 12  1  0  0  0  0
 12 13  2  0  0  0  0
 13 14  1  0  0  0  0
 13 38  1  0  0  0  0
 14 15  1  0  0  0  0
 15 16  1  0  0  0  0
 15 36  1  0  0  0  0
 15 37  1  0  0  0  0
 16 17  1  0  0  0  0
 16 21  2  0  0  0  0
 17 18  2  0  0  0  0
 17 35  1  0  0  0  0
 18 19  1  0  0  0  0
 18 34  1  0  0  0  0
 19 20  2  0  0  0  0
 19 24  1  0  0  0  0
 20 21  1  0  0  0  0
 20 23  1  0  0  0  0
 21 22  1  0  0  0  0
 24 25  1  0  0  0  0
 24 29  1  0  0  0  0
 24 33  1  0  0  0  0
 25 26  1  0  0  0  0
 25 27  1  0  0  0  0
 25 28  1  0  0  0  0
 29 30  1  0  0  0  0
 29 31  1  0  0  0  0
 29 32  1  0  0  0  0
 43 44  1  0  0  0  0
 43 45  1  0  0  0  0
 43 46  1  0  0  0  0
M  END
> <Gold.Goldscore.Fitness>
67.7756

> <Gold.Goldscore.External.HBond>
1.4847

> <Gold.Protein.ActiveResidues>
 GLU87   ILE88   VAL90   ASN91   ALA92   ASP94   ASN95   ARG98   ILE118  ASN120 
 LYS123  GLY124  ILE125  ILE141  PHE142  THR147  SER148  SER149  ASN150  TYR151 
 GLY160  GLY161  ARG162  ASN163  GLY164  TYR165  GLY166  ALA167  LYS168  LEU169 
 THR181  THR215  ILE217  ILE317  GLN376  LYS378  ILE33   TYR34   MG903  

> <Gold.Goldscore.Internal.HBond>
0.0

> <Gold.Goldscore.Internal.Torsion.Weighted>
-4.6232

> <Gold.Protein.RotatedTorsions>
[ 8833 2752 2751 2750 ] final  -92.65 input   60.00 | X-H torsion
[ 6906  969  968  965 ] final -179.89 input   59.99 | X-H torsion
[ 6910  975  974  971 ] final  -12.12 input   60.00 | X-H torsion
[ 6897  962  961  958 ] final   71.11 input   60.00 | X-H torsion
[ 9084 2997 2996 2994 ] final  -38.60 input   60.00 | X-H torsion
[ 7406 1497 1496 1493 ] final  170.76 input   60.00 | X-H torsion
[ 7140 1220 1219 1216 ] final  115.27 input   60.00 | X-H torsion
[ 6926  995  994  992 ] final   25.13 input   60.0

> <Gold.Goldscore.Constraint.Score>
0.0

> <Gold.Id.Protein>
1ZXM|1ZXM_protein|mol2

> <Gold.Protein.RotatedAtoms>
   40.6750    3.3830   41.8637 H   0  0  0  0  0  0  0  0  0  0  0  0  # atno 6897 bound_to 962 
   42.5663   -2.5035   38.2571 H   0  0  0  0  0  0  0  0  0  0  0  0  # atno 6906 bound_to 969 
   38.8111   -4.3840   40.0676 H   0  0  0  0  0  0  0  0  0  0  0  0  # atno 6910 bound_to 975 
   45.8911    1.1244   38.6740 H   0  0  0  0  0  0  0  0  0  0  0  0  # atno 6926 bound_to 995 
   28.0475    0.1168   43.0607 H   0  0  0  0  0  0  0  0  0  0  0  0  # atno 7140 bound_to 1220
   28.2838   -0.9017   41.0

> <Gold.Version>
5.3.0

> <Gold.Goldscore.Internal.Correction>
-0.0166

> <Gold.Goldscore.Internal.Vdw>
-1.3472

> <Gold.Goldscore.Internal.Vdw.Weighted>
-1.3472

> <Gold.Goldscore.External.HBond.Weighted>
1.4847

> <Gold.Goldscore.External.Vdw.Weighted>
72.2447

> <Gold.Goldscore.Internal.HBond.Weighted>
0.0

> <Gold.Goldscore.Hbonds>
donor molecule, donor type, donor heavy atom, donor atom, acceptor molecule, acceptor atom, score
      L1  H     1    27       P1   757  0.74

> <Gold.Goldscore.External.Vdw>
52.5416

> <Gold.Goldscore.Internal.Torsion>
-4.6232

> <Gold.Goldscore.Internal.Correction.Weighted>
-0.0166

> <Gold.Version>
5.3.0

> <Gold.Id.Protein>
1ZXM|1ZXM_protein|mol2

> <Gold.ASP.Fitness>
26.3984

> <Gold.ASP.ASP>
28.4480

> <Gold.ASP.Map>
-142.2400

> <Gold.ASP.DEClash>
0.7331

> <Gold.ASP.DEInternal>
1.3164

> <Gold.ASP.Internal.Correction>
0.1091

> <Gold.Protein.RotatedTorsions>
[ 8924 2752 2751 2750 ] final  -71.32 input   60.00 | X-H torsion
[ 6908  969  968  965 ] final   71.35 input   59.99 | X-H torsion
[ 6912  975  974  971 ] final   11.62 input   60.00 | X-H torsion
[ 6899  962  961  958 ] final  100.77 input   60.00 | X-H torsion
[ 9165 2997 2996 2994 ] final -149.46 input   60.00 | X-H torsion
[ 7410 1497 1496 1493 ] final  -20.09 input   60.00 | X-H torsion
[ 7137 1220 1219 1216 ] final  125.97 input   60.00 | X-H torsion
[ 6928  995  994  992 ] final   71.05 input   60.00 | X-H torsion

> <Gold.Protein.ActiveResidues>
 GLU87   ILE88   VAL90   ASN91   ALA92   ASP94   ASN95   ARG98   ILE118  ASN120 
 LYS123  GLY124  ILE125  ILE141  PHE142  THR147  SER148  SER149  ASN150  TYR151 
 GLY160  GLY161  ARG162  ASN163  GLY164  TYR165  GLY166  ALA167  LYS168  LEU169 
 THR181  THR215  ILE217  ILE317  GLN376  LYS378  ILE33   TYR34   MG903  

> <Gold.Protein.RotatedAtoms>
   40.4120    3.5302   42.2363 H   0  0  0  0  0  0  0  0  0  0  0  0  # atno 6899 bound_to 962 
   41.1291   -2.1629   38.6252 H   0  0  0  0  0  0  0  0  0  0  0  0  # atno 6908 bound_to 969 
   38.8862   -4.7569   40.0068 H   0  0  0  0  0  0  0  0  0  0  0  0  # atno 6912 bound_to 975 
   45.2822    1.2131   39.0677 H   0  0  0  0  0  0  0  0  0  0  0  0  # atno 6928 bound_to 995 
   28.2001    0.1082   43.1450 H   0  0  0  0  0  0  0  0  0  0  0  0  # atno 7137 bound_to 1220
   26.9228   -0.1099   42.0558 H   0  0  0  0  0  0  0  0  0  0  0  0  # atno 7410 bound_to 1497
   43.8778   -1.1435   30.2594 H   0  0  0  0  0  0  0  0  0  0  0  0  # atno 8924 bound_to 2752
   43.8604    0.2591   29.3764 H   0  0  0  0  0  0  0  0  0  0  0  0  # atno 8925 bound_to 2752
   43.2761    0.2489   30.9275 H   0  0  0  0  0  0  0  0  0  0  0  0  # atno 8926 bound_to 2752
   33.8789   -4.3484   45.5197 H   0  0  0  0  0  0  0  0  0  0  0  0  # atno 9165 bound_to 2997
   41.8605   -3.1839   39.6599 LP  0  0  0  0  0  0  0  0  0  0  0  0  # atno 11896 bound_to 969 
   42.6683   -2.6186   38.3582 LP  0  0  0  0  0  0  0  0  0  0  0  0  # atno 11897 bound_to 969 
   37.6331   -4.0008   40.7181 LP  0  0  0  0  0  0  0  0  0  0  0  0  # atno 11898 bound_to 975 
   37.6557   -5.6304   40.6159 LP  0  0  0  0  0  0  0  0  0  0  0  0  # atno 11899 bound_to 975 
   41.8108    4.0084   41.5561 LP  0  0  0  0  0  0  0  0  0  0  0  0  # atno 11904 bound_to 962 
   41.2236    4.7946   42.8614 LP  0  0  0  0  0  0  0  0  0  0  0  0  # atno 11905 bound_to 962 
   34.7009   -5.2464   44.4400 LP  0  0  0  0  0  0  0  0  0  0  0  0  # atno 11912 bound_to 2997
   34.2092   -3.7396   44.0472 LP  0  0  0  0  0  0  0  0  0  0  0  0  # atno 11913 bound_to 2997
   28.4304   -0.2470   41.4590 LP  0  0  0  0  0  0  0  0  0  0  0  0  # atno 11922 bound_to 1497
   27.2954   -1.3585   41.0812 LP  0  0  0  0  0  0  0  0  0  0  0  0  # atno 11923 bound_to 1497
   26.7330   -0.0578   43.8290 LP  0  0  0  0  0  0  0  0  0  0  0  0  # atno 11930 bound_to 1220
   28.0808   -0.1622   44.7452 LP  0  0  0  0  0  0  0  0  0  0  0  0  # atno 11931 bound_to 1220

$$$$
****|SGG-4|sdf|1|dock6
  -GOLD-   9 72311443D 1   1.00000     0.00000

 46 48  0  0  0  0  0  0  0  0  1 V2000
   39.4278    0.0998   38.1485 S   0  0  0  0  0  0  0  0  0  0  0  0
   39.6136    0.6032   36.5165 C   0  0  0  0  0  0  0  0  0  0  0  0
   38.7997    1.5581   36.1221 N   0  0  0  0  0  0  0  0  0  0  0  0
   37.9732    1.9228   37.1659 C   0  0  0  0  0  0  0  0  0  0  0  0
   38.1637    1.2432   38.3541 C   0  0  0  0  0  0  0  0  0  0  0  0
   37.4327    1.3607   39.6525 C   0  0  0  0  0  0  0  0  0  0  0  0
   38.0657    0.1650   40.8730 S   0  0  0  0  0  0  0  0  0  0  0  0
   37.0963   -1.2301   40.4210 C   0  0  0  0  0  0  0  0  0  0  0  0
   37.5908   -2.1136   39.4736 N   0  0  0  0  0  0  0  0  0  0  0  0
   36.8358   -3.2159   39.0923 C   0  0  0  0  0  0  0  0  0  0  0  0
   37.3307   -4.1173   38.1471 O   0  0  0  0  0  0  0  0  0  0  0  0
   35.6268   -3.4027   39.6307 N   0  0  0  0  0  0  0  0  0  0  0  0
   35.2162   -2.5018   40.5315 C   0  0  0  0  0  0  0  0  0  0  0  0
   33.5846   -2.7274   41.1871 S   0  0  0  0  0  0  0  0  0  0  0  0
   32.8064   -3.2404   39.6340 C   0  0  0  0  0  0  0  0  0  0  0  0
   32.3060   -2.0679   38.8293 C   0  0  0  0  0  0  0  0  0  0  0  0
   31.1213   -2.1573   38.0889 C   0  0  0  0  0  0  0  0  0  0  0  0
   30.6468   -1.0563   37.3689 C   0  0  0  0  0  0  0  0  0  0  0  0
   31.3540    0.1542   37.3585 C   0  0  0  0  0  0  0  0  0  0  0  0
   32.5462    0.2356   38.0921 C   0  0  0  0  0  0  0  0  0  0  0  0
   33.0185   -0.8619   38.8161 C   0  0  0  0  0  0  0  0  0  0  0  0
   33.9479   -0.7679   39.3744 H   0  0  0  0  0  0  0  0  0  0  0  0
   33.1186    1.1608   38.1104 H   0  0  0  0  0  0  0  0  0  0  0  0
   30.8511    1.3793   36.6148 C   0  0  0  0  0  0  0  0  0  0  0  0
   31.8373    2.5393   36.7674 C   0  0  0  0  0  0  0  0  0  0  0  0
   31.9325    2.8552   37.8121 H   0  0  0  0  0  0  0  0  0  0  0  0
   32.8348    2.2550   36.4135 H   0  0  0  0  0  0  0  0  0  0  0  0
   31.5099    3.4051   36.1819 H   0  0  0  0  0  0  0  0  0  0  0  0
   29.4429    1.8056   37.0383 C   0  0  0  0  0  0  0  0  0  0  0  0
   29.4272    2.2383   38.0444 H   0  0  0  0  0  0  0  0  0  0  0  0
   28.7543    0.9538   37.0257 H   0  0  0  0  0  0  0  0  0  0  0  0
   29.0513    2.5637   36.3511 H   0  0  0  0  0  0  0  0  0  0  0  0
   30.7921    1.1322   35.5462 H   0  0  0  0  0  0  0  0  0  0  0  0
   29.7121   -1.1567   36.8226 H   0  0  0  0  0  0  0  0  0  0  0  0
   30.5517   -3.0839   38.0727 H   0  0  0  0  0  0  0  0  0  0  0  0
   31.9626   -3.9110   39.8376 H   0  0  0  0  0  0  0  0  0  0  0  0
   33.5292   -3.8174   39.0450 H   0  0  0  0  0  0  0  0  0  0  0  0
   35.8905   -1.4258   40.9544 N   0  0  0  0  0  0  0  0  0  0  0  0
   38.5006   -1.9482   39.0665 H   0  0  0  0  0  0  0  0  0  0  0  0
   37.5674    2.3759   40.0442 H   0  0  0  0  0  0  0  0  0  0  0  0
   36.3592    1.1937   39.5131 H   0  0  0  0  0  0  0  0  0  0  0  0
   37.2380    2.7020   37.0020 H   0  0  0  0  0  0  0  0  0  0  0  0
   40.6313   -0.0450   35.6460 C   0  0  0  0  0  0  0  0  0  0  0  0
   41.6236    0.0238   36.1035 H   0  0  0  0  0  0  0  0  0  0  0  0
   40.6702    0.4541   34.6726 H   0  0  0  0  0  0  0  0  0  0  0  0
   40.4073   -1.1048   35.4883 H   0  0  0  0  0  0  0  0  0  0  0  0
  1  2  1  0  0  0  0
  1  5  1  0  0  0  0
  2  3  2  0  0  0  0
  2 43  1  0  0  0  0
  3  4  1  0  0  0  0
  4  5  2  0  0  0  0
  4 42  1  0  0  0  0
  5  6  1  0  0  0  0
  6  7  1  0  0  0  0
  6 40  1  0  0  0  0
  6 41  1  0  0  0  0
  7  8  1  0  0  0  0
  8  9  1  0  0  0  0
  8 38  2  0  0  0  0
  9 10  1  0  0  0  0
  9 39  1  0  0  0  0
 10 11  2  0  0  0  0
 10 12  1  0  0  0  0
 12 13  2  0  0  0  0
 13 14  1  0  0  0  0
 13 38  1  0  0  0  0
 14 15  1  0  0  0  0
 15 16  1  0  0  0  0
 15 36  1  0  0  0  0
 15 37  1  0  0  0  0
 16 17  1  0  0  0  0
 16 21  2  0  0  0  0
 17 18  2  0  0  0  0
 17 35  1  0  0  0  0
 18 19  1  0  0  0  0
 18 34  1  0  0  0  0
 19 20  2  0  0  0  0
 19 24  1  0  0  0  0
 20 21  1  0  0  0  0
 20 23  1  0  0  0  0
 21 22  1  0  0  0  0
 24 25  1  0  0  0  0
 24 29  1  0  0  0  0
 24 33  1  0  0  0  0
 25 26  1  0  0  0  0
 25 27  1  0  0  0  0
 25 28  1  0  0  0  0
 29 30  1  0  0  0  0
 29 31  1  0  0  0  0
 29 32  1  0  0  0  0
 43 44  1  0  0  0  0
 43 45  1  0  0  0  0
 43 46  1  0  0  0  0
M  END
> <Gold.Goldscore.Fitness>
67.7756

> <Gold.Goldscore.External.HBond>
1.4847

> <Gold.Protein.ActiveResidues>
 GLU87   ILE88   VAL90   ASN91   ALA92   ASP94   ASN95   ARG98   ILE118  ASN120 
 LYS123  GLY124  ILE125  ILE141  PHE142  THR147  SER148  SER149  ASN150  TYR151 
 GLY160  GLY161  ARG162  ASN163  GLY164  TYR165  GLY166  ALA167  LYS168  LEU169 
 THR181  THR215  ILE217  ILE317  GLN376  LYS378  ILE33   TYR34   MG903  

> <Gold.Goldscore.Internal.HBond>
0.0

> <Gold.Goldscore.Internal.Torsion.Weighted>
-4.6232

> <Gold.Protein.RotatedTorsions>
[ 8833 2752 2751 2750 ] final  -92.65 input   60.00 | X-H torsion
[ 6906  969  968  965 ] final -179.89 input   59.99 | X-H torsion
[ 6910  975  974  971 ] final  -12.12 input   60.00 | X-H torsion
[ 6897  962  961  958 ] final   71.11 input   60.00 | X-H torsion
[ 9084 2997 2996 2994 ] final  -38.60 input   60.00 | X-H torsion
[ 7406 1497 1496 1493 ] final  170.76 input   60.00 | X-H torsion
[ 7140 1220 1219 1216 ] final  115.27 input   60.00 | X-H torsion
[ 6926  995  994  992 ] final   25.13 input   60.0

> <Gold.Goldscore.Constraint.Score>
0.0

> <Gold.Id.Protein>
1ZXM|1ZXM_protein|mol2

> <Gold.Protein.RotatedAtoms>
   40.6750    3.3830   41.8637 H   0  0  0  0  0  0  0  0  0  0  0  0  # atno 6897 bound_to 962 
   42.5663   -2.5035   38.2571 H   0  0  0  0  0  0  0  0  0  0  0  0  # atno 6906 bound_to 969 
   38.8111   -4.3840   40.0676 H   0  0  0  0  0  0  0  0  0  0  0  0  # atno 6910 bound_to 975 
   45.8911    1.1244   38.6740 H   0  0  0  0  0  0  0  0  0  0  0  0  # atno 6926 bound_to 995 
   28.0475    0.1168   43.0607 H   0  0  0  0  0  0  0  0  0  0  0  0  # atno 7140 bound_to 1220
   28.2838   -0.9017   41.0

> <Gold.Version>
5.3.0

> <Gold.Goldscore.Internal.Correction>
-0.0166

> <Gold.Goldscore.Internal.Vdw>
-1.3472

> <Gold.Goldscore.Internal.Vdw.Weighted>
-1.3472

> <Gold.Goldscore.External.HBond.Weighted>
1.4847

> <Gold.Goldscore.External.Vdw.Weighted>
72.2447

> <Gold.Goldscore.Internal.HBond.Weighted>
0.0

> <Gold.Goldscore.Hbonds>
donor molecule, donor type, donor heavy atom, donor atom, acceptor molecule, acceptor atom, score
      L1  H     1    27       P1   757  0.74

> <Gold.Goldscore.External.Vdw>
52.5416

> <Gold.Goldscore.Internal.Torsion>
-4.6232

> <Gold.Goldscore.Internal.Correction.Weighted>
-0.0166

> <Gold.Version>
5.3.0

> <Gold.Id.Protein>
1ZXM|1ZXM_protein|mol2

> <Gold.ASP.Fitness>
26.3332

> <Gold.ASP.ASP>
30.0560

> <Gold.ASP.Map>
-150.2800

> <Gold.ASP.DEClash>
2.5240

> <Gold.ASP.DEInternal>
1.1989

> <Gold.ASP.Internal.Correction>
0.1091

> <Gold.Protein.RotatedTorsions>
[ 8924 2752 2751 2750 ] final  -31.73 input   60.00 | X-H torsion
[ 6908  969  968  965 ] final   40.36 input   59.99 | X-H torsion
[ 6912  975  974  971 ] final  153.68 input   60.00 | X-H torsion
[ 6899  962  961  958 ] final  133.46 input   60.00 | X-H torsion
[ 9165 2997 2996 2994 ] final -120.02 input   60.00 | X-H torsion
[ 7410 1497 1496 1493 ] final -146.69 input   60.00 | X-H torsion
[ 7137 1220 1219 1216 ] final -130.85 input   60.00 | X-H torsion
[ 6928  995  994  992 ] final -102.59 input   60.00 | X-H torsion

> <Gold.Protein.ActiveResidues>
 GLU87   ILE88   VAL90   ASN91   ALA92   ASP94   ASN95   ARG98   ILE118  ASN120 
 LYS123  GLY124  ILE125  ILE141  PHE142  THR147  SER148  SER149  ASN150  TYR151 
 GLY160  GLY161  ARG162  ASN163  GLY164  TYR165  GLY166  ALA167  LYS168  LEU169 
 THR181  THR215  ILE217  ILE317  GLN376  LYS378  ILE33   TYR34   MG903  

> <Gold.Protein.RotatedAtoms>
   40.3467    3.8653   42.6377 H   0  0  0  0  0  0  0  0  0  0  0  0  # atno 6899 bound_to 962 
   40.9985   -2.3997   39.0460 H   0  0  0  0  0  0  0  0  0  0  0  0  # atno 6908 bound_to 969 
   37.4183   -5.4013   40.7586 H   0  0  0  0  0  0  0  0  0  0  0  0  # atno 6912 bound_to 975 
   46.8948    1.5019   39.9684 H   0  0  0  0  0  0  0  0  0  0  0  0  # atno 6928 bound_to 995 
   28.3045   -0.1265   44.5894 H   0  0  0  0  0  0  0  0  0  0  0  0  # atno 7137 bound_to 1220
   28.4426   -0.3326   41.3936 H   0  0  0  0  0  0  0  0  0  0  0  0  # atno 7410 bound_to 1497
   44.0455   -0.9261   29.6723 H   0  0  0  0  0  0  0  0  0  0  0  0  # atno 8924 bound_to 2752
   43.5957    0.6634   29.8083 H   0  0  0  0  0  0  0  0  0  0  0  0  # atno 8925 bound_to 2752
   43.3732   -0.3728   31.0826 H   0  0  0  0  0  0  0  0  0  0  0  0  # atno 8926 bound_to 2752
   33.7900   -3.9361   45.2995 H   0  0  0  0  0  0  0  0  0  0  0  0  # atno 9165 bound_to 2997
   42.3232   -3.2443   39.4701 LP  0  0  0  0  0  0  0  0  0  0  0  0  # atno 11896 bound_to 969 
   42.3371   -2.3197   38.1242 LP  0  0  0  0  0  0  0  0  0  0  0  0  # atno 11897 bound_to 969 
   38.8350   -5.1127   40.0119 LP  0  0  0  0  0  0  0  0  0  0  0  0  # atno 11898 bound_to 975 
   37.9321   -3.8695   40.5649 LP  0  0  0  0  0  0  0  0  0  0  0  0  # atno 11899 bound_to 975 
   41.4505    3.6294   41.4655 LP  0  0  0  0  0  0  0  0  0  0  0  0  # atno 11904 bound_to 962 
   41.6496    4.8361   42.5476 LP  0  0  0  0  0  0  0  0  0  0  0  0  # atno 11905 bound_to 962 
   34.5491   -5.3157   44.8892 LP  0  0  0  0  0  0  0  0  0  0  0  0  # atno 11912 bound_to 2997
   34.4506   -4.0855   43.8198 LP  0  0  0  0  0  0  0  0  0  0  0  0  # atno 11913 bound_to 2997
   27.1967   -1.3441   41.1242 LP  0  0  0  0  0  0  0  0  0  0  0  0  # atno 11922 bound_to 1497
   26.9985   -0.0371   42.0830 LP  0  0  0  0  0  0  0  0  0  0  0  0  # atno 11923 bound_to 1497
   27.9560    0.1182   43.0189 LP  0  0  0  0  0  0  0  0  0  0  0  0  # atno 11930 bound_to 1220
   26.7526   -0.1019   44.1006 LP  0  0  0  0  0  0  0  0  0  0  0  0  # atno 11931 bound_to 1220

$$$$
****|SGG-4|sdf|1|dock7
  -GOLD-   9 72311443D 1   1.00000     0.00000

 46 48  0  0  0  0  0  0  0  0  1 V2000
   36.7064    0.0874   38.9120 S   0  0  0  0  0  0  0  0  0  0  0  0
   37.3264    1.6586   38.5982 C   0  0  0  0  0  0  0  0  0  0  0  0
   38.2955    1.7184   37.7110 N   0  0  0  0  0  0  0  0  0  0  0  0
   38.5742    0.4498   37.2433 C   0  0  0  0  0  0  0  0  0  0  0  0
   37.8123   -0.5724   37.7765 C   0  0  0  0  0  0  0  0  0  0  0  0
   37.8720   -2.0442   37.5227 C   0  0  0  0  0  0  0  0  0  0  0  0
   36.3205   -2.6460   36.7805 S   0  0  0  0  0  0  0  0  0  0  0  0
   35.7018   -3.5676   38.1437 C   0  0  0  0  0  0  0  0  0  0  0  0
   35.9801   -4.9238   38.2199 N   0  0  0  0  0  0  0  0  0  0  0  0
   35.4904   -5.6738   39.2820 C   0  0  0  0  0  0  0  0  0  0  0  0
   35.7751   -7.0382   39.3729 O   0  0  0  0  0  0  0  0  0  0  0  0
   34.7359   -5.0812   40.2127 N   0  0  0  0  0  0  0  0  0  0  0  0
   34.5048   -3.7711   40.0647 C   0  0  0  0  0  0  0  0  0  0  0  0
   33.4488   -3.0141   41.2709 S   0  0  0  0  0  0  0  0  0  0  0  0
   31.9006   -3.2319   40.3565 C   0  0  0  0  0  0  0  0  0  0  0  0
   31.6137   -2.0762   39.4319 C   0  0  0  0  0  0  0  0  0  0  0  0
   32.3574   -0.8927   39.5084 C   0  0  0  0  0  0  0  0  0  0  0  0
   32.1063    0.1643   38.6277 C   0  0  0  0  0  0  0  0  0  0  0  0
   31.0950    0.0693   37.6614 C   0  0  0  0  0  0  0  0  0  0  0  0
   30.3448   -1.1136   37.5960 C   0  0  0  0  0  0  0  0  0  0  0  0
   30.5983   -2.1722   38.4717 C   0  0  0  0  0  0  0  0  0  0  0  0
   29.9979   -3.0768   38.3970 H   0  0  0  0  0  0  0  0  0  0  0  0
   29.5553   -1.2239   36.8556 H   0  0  0  0  0  0  0  0  0  0  0  0
   30.8172    1.1841   36.6679 C   0  0  0  0  0  0  0  0  0  0  0  0
   31.7412    2.3755   36.9294 C   0  0  0  0  0  0  0  0  0  0  0  0
   31.5628    2.8175   37.9159 H   0  0  0  0  0  0  0  0  0  0  0  0
   32.7935    2.0725   36.8858 H   0  0  0  0  0  0  0  0  0  0  0  0
   31.5875    3.1566   36.1773 H   0  0  0  0  0  0  0  0  0  0  0  0
   29.3518    1.6274   36.6535 C   0  0  0  0  0  0  0  0  0  0  0  0
   29.0777    2.1780   37.5597 H   0  0  0  0  0  0  0  0  0  0  0  0
   28.6817    0.7652   36.5660 H   0  0  0  0  0  0  0  0  0  0  0  0
   29.1618    2.2880   35.8004 H   0  0  0  0  0  0  0  0  0  0  0  0
   31.0375    0.8083   35.6595 H   0  0  0  0  0  0  0  0  0  0  0  0
   32.7181    1.0598   38.7033 H   0  0  0  0  0  0  0  0  0  0  0  0
   33.1459   -0.7858   40.2501 H   0  0  0  0  0  0  0  0  0  0  0  0
   31.0612   -3.3386   41.0545 H   0  0  0  0  0  0  0  0  0  0  0  0
   31.9513   -4.1656   39.7838 H   0  0  0  0  0  0  0  0  0  0  0  0
   34.9506   -2.9845   39.0778 N   0  0  0  0  0  0  0  0  0  0  0  0
   36.5398   -5.3577   37.4993 H   0  0  0  0  0  0  0  0  0  0  0  0
   38.7006   -2.2518   36.8354 H   0  0  0  0  0  0  0  0  0  0  0  0
   38.0598   -2.5936   38.4515 H   0  0  0  0  0  0  0  0  0  0  0  0
   39.3555    0.3266   36.5023 H   0  0  0  0  0  0  0  0  0  0  0  0
   36.7788    2.8365   39.3238 C   0  0  0  0  0  0  0  0  0  0  0  0
   35.6948    2.9003   39.1836 H   0  0  0  0  0  0  0  0  0  0  0  0
   37.2263    3.7590   38.9406 H   0  0  0  0  0  0  0  0  0  0  0  0
   36.9748    2.7715   40.3988 H   0  0  0  0  0  0  0  0  0  0  0  0
  1  2  1  0  0  0  0
  1  5  1  0  0  0  0
  2  3  2  0  0  0  0
  2 43  1  0  0  0  0
  3  4  1  0  0  0  0
  4  5  2  0  0  0  0
  4 42  1  0  0  0  0
  5  6  1  0  0  0  0
  6  7  1  0  0  0  0
  6 40  1  0  0  0  0
  6 41  1  0  0  0  0
  7  8  1  0  0  0  0
  8  9  1  0  0  0  0
  8 38  2  0  0  0  0
  9 10  1  0  0  0  0
  9 39  1  0  0  0  0
 10 11  2  0  0  0  0
 10 12  1  0  0  0  0
 12 13  2  0  0  0  0
 13 14  1  0  0  0  0
 13 38  1  0  0  0  0
 14 15  1  0  0  0  0
 15 16  1  0  0  0  0
 15 36  1  0  0  0  0
 15 37  1  0  0  0  0
 16 17  1  0  0  0  0
 16 21  2  0  0  0  0
 17 18  2  0  0  0  0
 17 35  1  0  0  0  0
 18 19  1  0  0  0  0
 18 34  1  0  0  0  0
 19 20  2  0  0  0  0
 19 24  1  0  0  0  0
 20 21  1  0  0  0  0
 20 23  1  0  0  0  0
 21 22  1  0  0  0  0
 24 25  1  0  0  0  0
 24 29  1  0  0  0  0
 24 33  1  0  0  0  0
 25 26  1  0  0  0  0
 25 27  1  0  0  0  0
 25 28  1  0  0  0  0
 29 30  1  0  0  0  0
 29 31  1  0  0  0  0
 29 32  1  0  0  0  0
 43 44  1  0  0  0  0
 43 45  1  0  0  0  0
 43 46  1  0  0  0  0
M  END
> <Gold.Goldscore.Fitness>
67.7756

> <Gold.Goldscore.External.HBond>
1.4847

> <Gold.Protein.ActiveResidues>
 GLU87   ILE88   VAL90   ASN91   ALA92   ASP94   ASN95   ARG98   ILE118  ASN120 
 LYS123  GLY124  ILE125  ILE141  PHE142  THR147  SER148  SER149  ASN150  TYR151 
 GLY160  GLY161  ARG162  ASN163  GLY164  TYR165  GLY166  ALA167  LYS168  LEU169 
 THR181  THR215  ILE217  ILE317  GLN376  LYS378  ILE33   TYR34   MG903  

> <Gold.Goldscore.Internal.HBond>
0.0

> <Gold.Goldscore.Internal.Torsion.Weighted>
-4.6232

> <Gold.Protein.RotatedTorsions>
[ 8833 2752 2751 2750 ] final  -92.65 input   60.00 | X-H torsion
[ 6906  969  968  965 ] final -179.89 input   59.99 | X-H torsion
[ 6910  975  974  971 ] final  -12.12 input   60.00 | X-H torsion
[ 6897  962  961  958 ] final   71.11 input   60.00 | X-H torsion
[ 9084 2997 2996 2994 ] final  -38.60 input   60.00 | X-H torsion
[ 7406 1497 1496 1493 ] final  170.76 input   60.00 | X-H torsion
[ 7140 1220 1219 1216 ] final  115.27 input   60.00 | X-H torsion
[ 6926  995  994  992 ] final   25.13 input   60.0

> <Gold.Goldscore.Constraint.Score>
0.0

> <Gold.Id.Protein>
1ZXM|1ZXM_protein|mol2

> <Gold.Protein.RotatedAtoms>
   40.6750    3.3830   41.8637 H   0  0  0  0  0  0  0  0  0  0  0  0  # atno 6897 bound_to 962 
   42.5663   -2.5035   38.2571 H   0  0  0  0  0  0  0  0  0  0  0  0  # atno 6906 bound_to 969 
   38.8111   -4.3840   40.0676 H   0  0  0  0  0  0  0  0  0  0  0  0  # atno 6910 bound_to 975 
   45.8911    1.1244   38.6740 H   0  0  0  0  0  0  0  0  0  0  0  0  # atno 6926 bound_to 995 
   28.0475    0.1168   43.0607 H   0  0  0  0  0  0  0  0  0  0  0  0  # atno 7140 bound_to 1220
   28.2838   -0.9017   41.0

> <Gold.Version>
5.3.0

> <Gold.Goldscore.Internal.Correction>
-0.0166

> <Gold.Goldscore.Internal.Vdw>
-1.3472

> <Gold.Goldscore.Internal.Vdw.Weighted>
-1.3472

> <Gold.Goldscore.External.HBond.Weighted>
1.4847

> <Gold.Goldscore.External.Vdw.Weighted>
72.2447

> <Gold.Goldscore.Internal.HBond.Weighted>
0.0

> <Gold.Goldscore.Hbonds>
donor molecule, donor type, donor heavy atom, donor atom, acceptor molecule, acceptor atom, score
      L1  H     1    27       P1   757  0.74

> <Gold.Goldscore.External.Vdw>
52.5416

> <Gold.Goldscore.Internal.Torsion>
-4.6232

> <Gold.Goldscore.Internal.Correction.Weighted>
-0.0166

> <Gold.Version>
5.3.0

> <Gold.Id.Protein>
1ZXM|1ZXM_protein|mol2

> <Gold.ASP.Fitness>
26.3306

> <Gold.ASP.ASP>
29.7580

> <Gold.ASP.Map>
-148.7900

> <Gold.ASP.DEClash>
2.1071

> <Gold.ASP.DEInternal>
1.3203

> <Gold.ASP.Internal.Correction>
0.1091

> <Gold.Protein.RotatedTorsions>
[ 8924 2752 2751 2750 ] final  -61.84 input   60.00 | X-H torsion
[ 6908  969  968  965 ] final  141.38 input   59.99 | X-H torsion
[ 6912  975  974  971 ] final -141.49 input   60.00 | X-H torsion
[ 6899  962  961  958 ] final   10.64 input   60.00 | X-H torsion
[ 9165 2997 2996 2994 ] final -108.92 input   60.00 | X-H torsion
[ 7410 1497 1496 1493 ] final   97.21 input   60.00 | X-H torsion
[ 7137 1220 1219 1216 ] final  -23.34 input   60.00 | X-H torsion
[ 6928  995  994  992 ] final  -29.79 input   60.00 | X-H torsion

> <Gold.Protein.ActiveResidues>
 GLU87   ILE88   VAL90   ASN91   ALA92   ASP94   ASN95   ARG98   ILE118  ASN120 
 LYS123  GLY124  ILE125  ILE141  PHE142  THR147  SER148  SER149  ASN150  TYR151 
 GLY160  GLY161  ARG162  ASN163  GLY164  TYR165  GLY166  ALA167  LYS168  LEU169 
 THR181  THR215  ILE217  ILE317  GLN376  LYS378  ILE33   TYR34   MG903  

> <Gold.Protein.RotatedAtoms>
   41.4861    3.6594   41.4705 H   0  0  0  0  0  0  0  0  0  0  0  0  # atno 6899 bound_to 962 
   42.0619   -2.1808   38.0924 H   0  0  0  0  0  0  0  0  0  0  0  0  # atno 6908 bound_to 969 
   37.3191   -4.4084   40.8666 H   0  0  0  0  0  0  0  0  0  0  0  0  # atno 6912 bound_to 975 
   46.7168    1.2117   38.9107 H   0  0  0  0  0  0  0  0  0  0  0  0  # atno 6928 bound_to 995 
   26.8245   -0.1284   44.2902 H   0  0  0  0  0  0  0  0  0  0  0  0  # atno 7137 bound_to 1220
   27.2560   -1.3471   41.0993 H   0  0  0  0  0  0  0  0  0  0  0  0  # atno 7410 bound_to 1497
   43.9305   -1.1298   30.1111 H   0  0  0  0  0  0  0  0  0  0  0  0  # atno 8924 bound_to 2752
   43.8007    0.3850   29.4510 H   0  0  0  0  0  0  0  0  0  0  0  0  # atno 8925 bound_to 2752
   43.2832    0.1094   31.0013 H   0  0  0  0  0  0  0  0  0  0  0  0  # atno 8926 bound_to 2752
   33.7880   -3.8098   45.1697 H   0  0  0  0  0  0  0  0  0  0  0  0  # atno 9165 bound_to 2997
   41.0374   -2.5872   39.2896 LP  0  0  0  0  0  0  0  0  0  0  0  0  # atno 11896 bound_to 969 
   42.5520   -3.1972   39.2650 LP  0  0  0  0  0  0  0  0  0  0  0  0  # atno 11897 bound_to 969 
   38.1182   -5.7332   40.3622 LP  0  0  0  0  0  0  0  0  0  0  0  0  # atno 11898 bound_to 975 
   38.7488   -4.2489   40.1059 LP  0  0  0  0  0  0  0  0  0  0  0  0  # atno 11899 bound_to 975 
   41.6174    4.8419   42.5806 LP  0  0  0  0  0  0  0  0  0  0  0  0  # atno 11904 bound_to 962 
   40.3352    3.8310   42.6081 LP  0  0  0  0  0  0  0  0  0  0  0  0  # atno 11905 bound_to 962 
   34.4697   -5.2825   45.0500 LP  0  0  0  0  0  0  0  0  0  0  0  0  # atno 11912 bound_to 2997
   34.5321   -4.2459   43.7898 LP  0  0  0  0  0  0  0  0  0  0  0  0  # atno 11913 bound_to 2997
   26.9505   -0.0782   42.0711 LP  0  0  0  0  0  0  0  0  0  0  0  0  # atno 11922 bound_to 1497
   28.4397   -0.2813   41.4325 LP  0  0  0  0  0  0  0  0  0  0  0  0  # atno 11923 bound_to 1497
   28.4443   -0.0997   44.4426 LP  0  0  0  0  0  0  0  0  0  0  0  0  # atno 11930 bound_to 1220
   27.7551    0.1180   42.9783 LP  0  0  0  0  0  0  0  0  0  0  0  0  # atno 11931 bound_to 1220

$$$$
****|SGG-4|sdf|1|dock23
  -GOLD-   9 72311453D 1   1.00000     0.00000

 46 48  0  0  0  0  0  0  0  0  1 V2000
   36.8564   -5.9641   37.6529 S   0  0  0  0  0  0  0  0  0  0  0  0
   35.7476   -6.6827   38.7509 C   0  0  0  0  0  0  0  0  0  0  0  0
   34.9865   -5.8429   39.4182 N   0  0  0  0  0  0  0  0  0  0  0  0
   35.2894   -4.5481   39.0473 C   0  0  0  0  0  0  0  0  0  0  0  0
   36.2811   -4.4081   38.0950 C   0  0  0  0  0  0  0  0  0  0  0  0
   36.8706   -3.1696   37.5011 C   0  0  0  0  0  0  0  0  0  0  0  0
   38.6298   -3.0017   37.9449 S   0  0  0  0  0  0  0  0  0  0  0  0
   38.8211   -1.2764   37.6671 C   0  0  0  0  0  0  0  0  0  0  0  0
   39.7573   -0.8447   36.7398 N   0  0  0  0  0  0  0  0  0  0  0  0
   39.9338    0.5147   36.5137 C   0  0  0  0  0  0  0  0  0  0  0  0
   40.8664    0.9584   35.5733 O   0  0  0  0  0  0  0  0  0  0  0  0
   39.2100    1.3965   37.2103 N   0  0  0  0  0  0  0  0  0  0  0  0
   38.3336    0.9020   38.0928 C   0  0  0  0  0  0  0  0  0  0  0  0
   37.4289    2.0846   39.0551 S   0  0  0  0  0  0  0  0  0  0  0  0
   36.7187    0.8990   40.2259 C   0  0  0  0  0  0  0  0  0  0  0  0
   35.3062    0.5142   39.8657 C   0  0  0  0  0  0  0  0  0  0  0  0
   34.6704    1.0744   38.7515 C   0  0  0  0  0  0  0  0  0  0  0  0
   33.3709    0.6905   38.4054 C   0  0  0  0  0  0  0  0  0  0  0  0
   32.6707   -0.2495   39.1745 C   0  0  0  0  0  0  0  0  0  0  0  0
   33.3072   -0.7994   40.2965 C   0  0  0  0  0  0  0  0  0  0  0  0
   34.6073   -0.4207   40.6402 C   0  0  0  0  0  0  0  0  0  0  0  0
   35.0738   -0.8642   41.5176 H   0  0  0  0  0  0  0  0  0  0  0  0
   32.7955   -1.5350   40.9135 H   0  0  0  0  0  0  0  0  0  0  0  0
   31.2715   -0.7137   38.8091 C   0  0  0  0  0  0  0  0  0  0  0  0
   31.1471   -2.2283   38.9878 C   0  0  0  0  0  0  0  0  0  0  0  0
   31.8168   -2.7721   38.3124 H   0  0  0  0  0  0  0  0  0  0  0  0
   31.3968   -2.5239   40.0131 H   0  0  0  0  0  0  0  0  0  0  0  0
   30.1229   -2.5590   38.7853 H   0  0  0  0  0  0  0  0  0  0  0  0
   30.8477   -0.2976   37.3979 C   0  0  0  0  0  0  0  0  0  0  0  0
   31.3852   -0.8555   36.6237 H   0  0  0  0  0  0  0  0  0  0  0  0
   31.0284    0.7701   37.2325 H   0  0  0  0  0  0  0  0  0  0  0  0
   29.7781   -0.4836   37.2508 H   0  0  0  0  0  0  0  0  0  0  0  0
   30.5609   -0.2386   39.4991 H   0  0  0  0  0  0  0  0  0  0  0  0
   32.9172    1.1315   37.5212 H   0  0  0  0  0  0  0  0  0  0  0  0
   35.1849    1.8099   38.1369 H   0  0  0  0  0  0  0  0  0  0  0  0
   36.7193    1.3211   41.2383 H   0  0  0  0  0  0  0  0  0  0  0  0
   37.3530    0.0053   40.2595 H   0  0  0  0  0  0  0  0  0  0  0  0
   38.1020   -0.3898   38.3554 N   0  0  0  0  0  0  0  0  0  0  0  0
   40.3058   -1.5254   36.2332 H   0  0  0  0  0  0  0  0  0  0  0  0
   36.7813   -3.2230   36.4096 H   0  0  0  0  0  0  0  0  0  0  0  0
   36.3307   -2.2787   37.8395 H   0  0  0  0  0  0  0  0  0  0  0  0
   34.7476   -3.7319   39.5108 H   0  0  0  0  0  0  0  0  0  0  0  0
   35.7059   -8.1614   38.9100 C   0  0  0  0  0  0  0  0  0  0  0  0
   35.5364   -8.6443   37.9421 H   0  0  0  0  0  0  0  0  0  0  0  0
   34.8894   -8.4473   39.5805 H   0  0  0  0  0  0  0  0  0  0  0  0
   36.6459   -8.5472   39.3173 H   0  0  0  0  0  0  0  0  0  0  0  0
  1  2  1  0  0  0  0
  1  5  1  0  0  0  0
  2  3  2  0  0  0  0
  2 43  1  0  0  0  0
  3  4  1  0  0  0  0
  4  5  2  0  0  0  0
  4 42  1  0  0  0  0
  5  6  1  0  0  0  0
  6  7  1  0  0  0  0
  6 40  1  0  0  0  0
  6 41  1  0  0  0  0
  7  8  1  0  0  0  0
  8  9  1  0  0  0  0
  8 38  2  0  0  0  0
  9 10  1  0  0  0  0
  9 39  1  0  0  0  0
 10 11  2  0  0  0  0
 10 12  1  0  0  0  0
 12 13  2  0  0  0  0
 13 14  1  0  0  0  0
 13 38  1  0  0  0  0
 14 15  1  0  0  0  0
 15 16  1  0  0  0  0
 15 36  1  0  0  0  0
 15 37  1  0  0  0  0
 16 17  1  0  0  0  0
 16 21  2  0  0  0  0
 17 18  2  0  0  0  0
 17 35  1  0  0  0  0
 18 19  1  0  0  0  0
 18 34  1  0  0  0  0
 19 20  2  0  0  0  0
 19 24  1  0  0  0  0
 20 21  1  0  0  0  0
 20 23  1  0  0  0  0
 21 22  1  0  0  0  0
 24 25  1  0  0  0  0
 24 29  1  0  0  0  0
 24 33  1  0  0  0  0
 25 26  1  0  0  0  0
 25 27  1  0  0  0  0
 25 28  1  0  0  0  0
 29 30  1  0  0  0  0
 29 31  1  0  0  0  0
 29 32  1  0  0  0  0
 43 44  1  0  0  0  0
 43 45  1  0  0  0  0
 43 46  1  0  0  0  0
M  END
> <Gold.Goldscore.Fitness>
67.7756

> <Gold.Goldscore.External.HBond>
1.4847

> <Gold.Protein.ActiveResidues>
 GLU87   ILE88   VAL90   ASN91   ALA92   ASP94   ASN95   ARG98   ILE118  ASN120 
 LYS123  GLY124  ILE125  ILE141  PHE142  THR147  SER148  SER149  ASN150  TYR151 
 GLY160  GLY161  ARG162  ASN163  GLY164  TYR165  GLY166  ALA167  LYS168  LEU169 
 THR181  THR215  ILE217  ILE317  GLN376  LYS378  ILE33   TYR34   MG903  

> <Gold.Goldscore.Internal.HBond>
0.0

> <Gold.Goldscore.Internal.Torsion.Weighted>
-4.6232

> <Gold.Protein.RotatedTorsions>
[ 8833 2752 2751 2750 ] final  -92.65 input   60.00 | X-H torsion
[ 6906  969  968  965 ] final -179.89 input   59.99 | X-H torsion
[ 6910  975  974  971 ] final  -12.12 input   60.00 | X-H torsion
[ 6897  962  961  958 ] final   71.11 input   60.00 | X-H torsion
[ 9084 2997 2996 2994 ] final  -38.60 input   60.00 | X-H torsion
[ 7406 1497 1496 1493 ] final  170.76 input   60.00 | X-H torsion
[ 7140 1220 1219 1216 ] final  115.27 input   60.00 | X-H torsion
[ 6926  995  994  992 ] final   25.13 input   60.0

> <Gold.Goldscore.Constraint.Score>
0.0

> <Gold.Id.Protein>
1ZXM|1ZXM_protein|mol2

> <Gold.Protein.RotatedAtoms>
   40.6750    3.3830   41.8637 H   0  0  0  0  0  0  0  0  0  0  0  0  # atno 6897 bound_to 962 
   42.5663   -2.5035   38.2571 H   0  0  0  0  0  0  0  0  0  0  0  0  # atno 6906 bound_to 969 
   38.8111   -4.3840   40.0676 H   0  0  0  0  0  0  0  0  0  0  0  0  # atno 6910 bound_to 975 
   45.8911    1.1244   38.6740 H   0  0  0  0  0  0  0  0  0  0  0  0  # atno 6926 bound_to 995 
   28.0475    0.1168   43.0607 H   0  0  0  0  0  0  0  0  0  0  0  0  # atno 7140 bound_to 1220
   28.2838   -0.9017   41.0

> <Gold.Version>
5.3.0

> <Gold.Goldscore.Internal.Correction>
-0.0166

> <Gold.Goldscore.Internal.Vdw>
-1.3472

> <Gold.Goldscore.Internal.Vdw.Weighted>
-1.3472

> <Gold.Goldscore.External.HBond.Weighted>
1.4847

> <Gold.Goldscore.External.Vdw.Weighted>
72.2447

> <Gold.Goldscore.Internal.HBond.Weighted>
0.0

> <Gold.Goldscore.Hbonds>
donor molecule, donor type, donor heavy atom, donor atom, acceptor molecule, acceptor atom, score
      L1  H     1    27       P1   757  0.74

> <Gold.Goldscore.External.Vdw>
52.5416

> <Gold.Goldscore.Internal.Torsion>
-4.6232

> <Gold.Goldscore.Internal.Correction.Weighted>
-0.0166

> <Gold.Version>
5.3.0

> <Gold.Id.Protein>
1ZXM|1ZXM_protein|mol2

> <Gold.ASP.Fitness>
26.3071

> <Gold.ASP.ASP>
29.6680

> <Gold.ASP.Map>
-148.3400

> <Gold.ASP.DEClash>
2.5970

> <Gold.ASP.DEInternal>
0.7639

> <Gold.ASP.Internal.Correction>
0.1091

> <Gold.Protein.RotatedTorsions>
[ 8924 2752 2751 2750 ] final    9.52 input   60.00 | X-H torsion
[ 6908  969  968  965 ] final   44.23 input   59.99 | X-H torsion
[ 6912  975  974  971 ] final   60.70 input   60.00 | X-H torsion
[ 6899  962  961  958 ] final   85.91 input   60.00 | X-H torsion
[ 9165 2997 2996 2994 ] final  -47.84 input   60.00 | X-H torsion
[ 7410 1497 1496 1493 ] final    5.32 input   60.00 | X-H torsion
[ 7137 1220 1219 1216 ] final  126.58 input   60.00 | X-H torsion
[ 6928  995  994  992 ] final  130.07 input   60.00 | X-H torsion

> <Gold.Protein.ActiveResidues>
 GLU87   ILE88   VAL90   ASN91   ALA92   ASP94   ASN95   ARG98   ILE118  ASN120 
 LYS123  GLY124  ILE125  ILE141  PHE142  THR147  SER148  SER149  ASN150  TYR151 
 GLY160  GLY161  ARG162  ASN163  GLY164  TYR165  GLY166  ALA167  LYS168  LEU169 
 THR181  THR215  ILE217  ILE317  GLN376  LYS378  ILE33   TYR34   MG903  

> <Gold.Protein.RotatedAtoms>
   40.5229    3.4340   42.0439 H   0  0  0  0  0  0  0  0  0  0  0  0  # atno 6899 bound_to 962 
   41.0010   -2.3645   38.9935 H   0  0  0  0  0  0  0  0  0  0  0  0  # atno 6908 bound_to 969 
   38.6114   -5.4763   40.1144 H   0  0  0  0  0  0  0  0  0  0  0  0  # atno 6912 bound_to 975 
   45.2175    1.4508   39.9565 H   0  0  0  0  0  0  0  0  0  0  0  0  # atno 6928 bound_to 995 
   28.2083    0.1075   43.1507 H   0  0  0  0  0  0  0  0  0  0  0  0  # atno 7137 bound_to 1220
   26.7040   -0.4278   41.9122 H   0  0  0  0  0  0  0  0  0  0  0  0  # atno 7410 bound_to 1497
   44.0374   -0.3544   29.3151 H   0  0  0  0  0  0  0  0  0  0  0  0  # atno 8924 bound_to 2752
   43.3586    0.6568   30.4394 H   0  0  0  0  0  0  0  0  0  0  0  0  # atno 8925 bound_to 2752
   43.6184   -0.9379   30.8088 H   0  0  0  0  0  0  0  0  0  0  0  0  # atno 8926 bound_to 2752
   34.0648   -3.6171   44.2801 H   0  0  0  0  0  0  0  0  0  0  0  0  # atno 9165 bound_to 2997
   42.2698   -3.2460   39.5047 LP  0  0  0  0  0  0  0  0  0  0  0  0  # atno 11896 bound_to 969 
   42.3880   -2.3534   38.1425 LP  0  0  0  0  0  0  0  0  0  0  0  0  # atno 11897 bound_to 969 
   38.3191   -3.8938   40.3560 LP  0  0  0  0  0  0  0  0  0  0  0  0  # atno 11898 bound_to 975 
   37.2465   -5.0129   40.8696 LP  0  0  0  0  0  0  0  0  0  0  0  0  # atno 11899 bound_to 975 
   41.9097    4.1994   41.6709 LP  0  0  0  0  0  0  0  0  0  0  0  0  # atno 11904 bound_to 962 
   41.0130    4.7005   42.9404 LP  0  0  0  0  0  0  0  0  0  0  0  0  # atno 11905 bound_to 962 
   33.9834   -4.6278   45.5528 LP  0  0  0  0  0  0  0  0  0  0  0  0  # atno 11912 bound_to 2997
   34.7395   -5.0947   44.1828 LP  0  0  0  0  0  0  0  0  0  0  0  0  # atno 11913 bound_to 2997
   28.2518    0.0315   41.7091 LP  0  0  0  0  0  0  0  0  0  0  0  0  # atno 11922 bound_to 1497
   27.6943   -1.3168   40.9758 LP  0  0  0  0  0  0  0  0  0  0  0  0  # atno 11923 bound_to 1497
   26.7338   -0.0562   43.8192 LP  0  0  0  0  0  0  0  0  0  0  0  0  # atno 11930 bound_to 1220
   28.0717   -0.1632   44.7494 LP  0  0  0  0  0  0  0  0  0  0  0  0  # atno 11931 bound_to 1220

$$$$
****|SGG-4|sdf|1|dock97
  -GOLD-   9 72311523D 1   1.00000     0.00000

 46 48  0  0  0  0  0  0  0  0  1 V2000
   39.2153   -0.0453   38.4496 S   0  0  0  0  0  0  0  0  0  0  0  0
   39.8324    0.0319   36.8482 C   0  0  0  0  0  0  0  0  0  0  0  0
   39.4469    1.0724   36.1421 N   0  0  0  0  0  0  0  0  0  0  0  0
   38.6114    1.8650   36.9033 C   0  0  0  0  0  0  0  0  0  0  0  0
   38.3659    1.4240   38.1898 C   0  0  0  0  0  0  0  0  0  0  0  0
   37.4967    2.0118   39.2542 C   0  0  0  0  0  0  0  0  0  0  0  0
   35.7500    2.0370   38.7359 S   0  0  0  0  0  0  0  0  0  0  0  0
   35.4358    0.3074   38.7402 C   0  0  0  0  0  0  0  0  0  0  0  0
   35.9172   -0.4657   37.6946 N   0  0  0  0  0  0  0  0  0  0  0  0
   35.6696   -1.8327   37.6715 C   0  0  0  0  0  0  0  0  0  0  0  0
   36.1603   -2.6211   36.6282 O   0  0  0  0  0  0  0  0  0  0  0  0
   34.9494   -2.3870   38.6516 N   0  0  0  0  0  0  0  0  0  0  0  0
   34.5127   -1.5734   39.6205 C   0  0  0  0  0  0  0  0  0  0  0  0
   33.5042   -2.3121   40.8776 S   0  0  0  0  0  0  0  0  0  0  0  0
   32.1155   -2.7478   39.7994 C   0  0  0  0  0  0  0  0  0  0  0  0
   31.6385   -1.5769   38.9782 C   0  0  0  0  0  0  0  0  0  0  0  0
   30.8953   -1.7745   37.8084 C   0  0  0  0  0  0  0  0  0  0  0  0
   30.4299   -0.6834   37.0677 C   0  0  0  0  0  0  0  0  0  0  0  0
   30.7108    0.6300   37.4697 C   0  0  0  0  0  0  0  0  0  0  0  0
   31.4653    0.8230   38.6357 C   0  0  0  0  0  0  0  0  0  0  0  0
   31.9263   -0.2661   39.3795 C   0  0  0  0  0  0  0  0  0  0  0  0
   32.5108   -0.0838   40.2791 H   0  0  0  0  0  0  0  0  0  0  0  0
   31.6982    1.8286   38.9799 H   0  0  0  0  0  0  0  0  0  0  0  0
   30.1936    1.8380   36.7080 C   0  0  0  0  0  0  0  0  0  0  0  0
   29.1865    1.4054   35.6401 C   0  0  0  0  0  0  0  0  0  0  0  0
   29.6500    0.7637   34.8826 H   0  0  0  0  0  0  0  0  0  0  0  0
   28.3568    0.8464   36.0873 H   0  0  0  0  0  0  0  0  0  0  0  0
   28.7645    2.2779   35.1302 H   0  0  0  0  0  0  0  0  0  0  0  0
   31.3099    2.6838   36.0895 C   0  0  0  0  0  0  0  0  0  0  0  0
   31.7887    2.1807   35.2426 H   0  0  0  0  0  0  0  0  0  0  0  0
   32.0849    2.9125   36.8291 H   0  0  0  0  0  0  0  0  0  0  0  0
   30.9081    3.6337   35.7198 H   0  0  0  0  0  0  0  0  0  0  0  0
   29.6661    2.4908   37.4166 H   0  0  0  0  0  0  0  0  0  0  0  0
   29.8381   -0.8754   36.1761 H   0  0  0  0  0  0  0  0  0  0  0  0
   30.6645   -2.7813   37.4671 H   0  0  0  0  0  0  0  0  0  0  0  0
   31.2754   -3.1214   40.3975 H   0  0  0  0  0  0  0  0  0  0  0  0
   32.4188   -3.5691   39.1392 H   0  0  0  0  0  0  0  0  0  0  0  0
   34.7206   -0.2545   39.7147 N   0  0  0  0  0  0  0  0  0  0  0  0
   36.4471   -0.0268   36.9548 H   0  0  0  0  0  0  0  0  0  0  0  0
   37.5907    1.4058   40.1631 H   0  0  0  0  0  0  0  0  0  0  0  0
   37.8116    3.0325   39.4966 H   0  0  0  0  0  0  0  0  0  0  0  0
   38.2032    2.7671   36.4627 H   0  0  0  0  0  0  0  0  0  0  0  0
   40.7255   -1.0437   36.3391 C   0  0  0  0  0  0  0  0  0  0  0  0
   41.5926   -1.1624   36.9971 H   0  0  0  0  0  0  0  0  0  0  0  0
   41.0899   -0.7913   35.3383 H   0  0  0  0  0  0  0  0  0  0  0  0
   40.2065   -2.0063   36.2912 H   0  0  0  0  0  0  0  0  0  0  0  0
  1  2  1  0  0  0  0
  1  5  1  0  0  0  0
  2  3  2  0  0  0  0
  2 43  1  0  0  0  0
  3  4  1  0  0  0  0
  4  5  2  0  0  0  0
  4 42  1  0  0  0  0
  5  6  1  0  0  0  0
  6  7  1  0  0  0  0
  6 40  1  0  0  0  0
  6 41  1  0  0  0  0
  7  8  1  0  0  0  0
  8  9  1  0  0  0  0
  8 38  2  0  0  0  0
  9 10  1  0  0  0  0
  9 39  1  0  0  0  0
 10 11  2  0  0  0  0
 10 12  1  0  0  0  0
 12 13  2  0  0  0  0
 13 14  1  0  0  0  0
 13 38  1  0  0  0  0
 14 15  1  0  0  0  0
 15 16  1  0  0  0  0
 15 36  1  0  0  0  0
 15 37  1  0  0  0  0
 16 17  1  0  0  0  0
 16 21  2  0  0  0  0
 17 18  2  0  0  0  0
 17 35  1  0  0  0  0
 18 19  1  0  0  0  0
 18 34  1  0  0  0  0
 19 20  2  0  0  0  0
 19 24  1  0  0  0  0
 20 21  1  0  0  0  0
 20 23  1  0  0  0  0
 21 22  1  0  0  0  0
 24 25  1  0  0  0  0
 24 29  1  0  0  0  0
 24 33  1  0  0  0  0
 25 26  1  0  0  0  0
 25 27  1  0  0  0  0
 25 28  1  0  0  0  0
 29 30  1  0  0  0  0
 29 31  1  0  0  0  0
 29 32  1  0  0  0  0
 43 44  1  0  0  0  0
 43 45  1  0  0  0  0
 43 46  1  0  0  0  0
M  END
> <Gold.Goldscore.Fitness>
67.7756

> <Gold.Goldscore.External.HBond>
1.4847

> <Gold.Protein.ActiveResidues>
 GLU87   ILE88   VAL90   ASN91   ALA92   ASP94   ASN95   ARG98   ILE118  ASN120 
 LYS123  GLY124  ILE125  ILE141  PHE142  THR147  SER148  SER149  ASN150  TYR151 
 GLY160  GLY161  ARG162  ASN163  GLY164  TYR165  GLY166  ALA167  LYS168  LEU169 
 THR181  THR215  ILE217  ILE317  GLN376  LYS378  ILE33   TYR34   MG903  

> <Gold.Goldscore.Internal.HBond>
0.0

> <Gold.Goldscore.Internal.Torsion.Weighted>
-4.6232

> <Gold.Protein.RotatedTorsions>
[ 8833 2752 2751 2750 ] final  -92.65 input   60.00 | X-H torsion
[ 6906  969  968  965 ] final -179.89 input   59.99 | X-H torsion
[ 6910  975  974  971 ] final  -12.12 input   60.00 | X-H torsion
[ 6897  962  961  958 ] final   71.11 input   60.00 | X-H torsion
[ 9084 2997 2996 2994 ] final  -38.60 input   60.00 | X-H torsion
[ 7406 1497 1496 1493 ] final  170.76 input   60.00 | X-H torsion
[ 7140 1220 1219 1216 ] final  115.27 input   60.00 | X-H torsion
[ 6926  995  994  992 ] final   25.13 input   60.0

> <Gold.Goldscore.Constraint.Score>
0.0

> <Gold.Id.Protein>
1ZXM|1ZXM_protein|mol2

> <Gold.Protein.RotatedAtoms>
   40.6750    3.3830   41.8637 H   0  0  0  0  0  0  0  0  0  0  0  0  # atno 6897 bound_to 962 
   42.5663   -2.5035   38.2571 H   0  0  0  0  0  0  0  0  0  0  0  0  # atno 6906 bound_to 969 
   38.8111   -4.3840   40.0676 H   0  0  0  0  0  0  0  0  0  0  0  0  # atno 6910 bound_to 975 
   45.8911    1.1244   38.6740 H   0  0  0  0  0  0  0  0  0  0  0  0  # atno 6926 bound_to 995 
   28.0475    0.1168   43.0607 H   0  0  0  0  0  0  0  0  0  0  0  0  # atno 7140 bound_to 1220
   28.2838   -0.9017   41.0

> <Gold.Version>
5.3.0

> <Gold.Goldscore.Internal.Correction>
-0.0166

> <Gold.Goldscore.Internal.Vdw>
-1.3472

> <Gold.Goldscore.Internal.Vdw.Weighted>
-1.3472

> <Gold.Goldscore.External.HBond.Weighted>
1.4847

> <Gold.Goldscore.External.Vdw.Weighted>
72.2447

> <Gold.Goldscore.Internal.HBond.Weighted>
0.0

> <Gold.Goldscore.Hbonds>
donor molecule, donor type, donor heavy atom, donor atom, acceptor molecule, acceptor atom, score
      L1  H     1    27       P1   757  0.74

> <Gold.Goldscore.External.Vdw>
52.5416

> <Gold.Goldscore.Internal.Torsion>
-4.6232

> <Gold.Goldscore.Internal.Correction.Weighted>
-0.0166

> <Gold.Version>
5.3.0

> <Gold.Id.Protein>
1ZXM|1ZXM_protein|mol2

> <Gold.ASP.Fitness>
26.1664

> <Gold.ASP.ASP>
29.5600

> <Gold.ASP.Map>
-147.8000

> <Gold.ASP.DEClash>
0.1876

> <Gold.ASP.DEInternal>
3.2059

> <Gold.ASP.Internal.Correction>
0.1072

> <Gold.Protein.RotatedTorsions>
[ 8924 2752 2751 2750 ] final -152.08 input   60.00 | X-H torsion
[ 6908  969  968  965 ] final -109.50 input   59.99 | X-H torsion
[ 6912  975  974  971 ] final -132.38 input   60.00 | X-H torsion
[ 6899  962  961  958 ] final  102.15 input   60.00 | X-H torsion
[ 9165 2997 2996 2994 ] final -175.09 input   60.00 | X-H torsion
[ 7410 1497 1496 1493 ] final  -62.51 input   60.00 | X-H torsion
[ 7137 1220 1219 1216 ] final  179.37 input   60.00 | X-H torsion
[ 6928  995  994  992 ] final -118.85 input   60.00 | X-H torsion

> <Gold.Protein.ActiveResidues>
 GLU87   ILE88   VAL90   ASN91   ALA92   ASP94   ASN95   ARG98   ILE118  ASN120 
 LYS123  GLY124  ILE125  ILE141  PHE142  THR147  SER148  SER149  ASN150  TYR151 
 GLY160  GLY161  ARG162  ASN163  GLY164  TYR165  GLY166  ALA167  LYS168  LEU169 
 THR181  THR215  ILE217  ILE317  GLN376  LYS378  ILE33   TYR34   MG903  

> <Gold.Protein.RotatedAtoms>
   40.4041    3.5413   42.2544 H   0  0  0  0  0  0  0  0  0  0  0  0  # atno 6899 bound_to 962 
   42.6471   -3.1378   39.1265 H   0  0  0  0  0  0  0  0  0  0  0  0  # atno 6908 bound_to 969 
   37.3858   -4.2784   40.8380 H   0  0  0  0  0  0  0  0  0  0  0  0  # atno 6912 bound_to 975 
   46.7419    1.5540   40.1781 H   0  0  0  0  0  0  0  0  0  0  0  0  # atno 6928 bound_to 995 
   28.6074    0.0021   43.8735 H   0  0  0  0  0  0  0  0  0  0  0  0  # atno 7137 bound_to 1220
   27.5253    0.1996   42.0648 H   0  0  0  0  0  0  0  0  0  0  0  0  # atno 7410 bound_to 1497
   43.3716   -0.3670   31.0832 H   0  0  0  0  0  0  0  0  0  0  0  0  # atno 8924 bound_to 2752
   44.0446   -0.9298   29.6769 H   0  0  0  0  0  0  0  0  0  0  0  0  # atno 8925 bound_to 2752
   43.5982    0.6614   29.8033 H   0  0  0  0  0  0  0  0  0  0  0  0  # atno 8926 bound_to 2752
   34.0387   -4.7315   45.5337 H   0  0  0  0  0  0  0  0  0  0  0  0  # atno 9165 bound_to 2997
   41.8943   -2.1214   38.1026 LP  0  0  0  0  0  0  0  0  0  0  0  0  # atno 11896 bound_to 969 
   41.1059   -2.6993   39.4107 LP  0  0  0  0  0  0  0  0  0  0  0  0  # atno 11897 bound_to 969 
   37.9860   -5.7357   40.4329 LP  0  0  0  0  0  0  0  0  0  0  0  0  # atno 11898 bound_to 975 
   38.8138   -4.3773   40.0640 LP  0  0  0  0  0  0  0  0  0  0  0  0  # atno 11899 bound_to 975 
   41.7992    3.9908   41.5475 LP  0  0  0  0  0  0  0  0  0  0  0  0  # atno 11904 bound_to 962 
   41.2432    4.8011   42.8517 LP  0  0  0  0  0  0  0  0  0  0  0  0  # atno 11905 bound_to 962 
   34.7414   -5.0155   44.0937 LP  0  0  0  0  0  0  0  0  0  0  0  0  # atno 11912 bound_to 2997
   34.0079   -3.5848   44.3795 LP  0  0  0  0  0  0  0  0  0  0  0  0  # atno 11913 bound_to 2997
   28.3461   -0.8190   41.0969 LP  0  0  0  0  0  0  0  0  0  0  0  0  # atno 11922 bound_to 1497
   26.7729   -1.0982   41.4343 LP  0  0  0  0  0  0  0  0  0  0  0  0  # atno 11923 bound_to 1497
   27.1695    0.0751   43.1151 LP  0  0  0  0  0  0  0  0  0  0  0  0  # atno 11930 bound_to 1220
   27.2341   -0.1883   44.7254 LP  0  0  0  0  0  0  0  0  0  0  0  0  # atno 11931 bound_to 1220

$$$$
****|SGG-4|sdf|1|dock77
  -GOLD-   9 72311503D 1   1.00000     0.00000

 46 48  0  0  0  0  0  0  0  0  1 V2000
   33.4414    1.0220   37.9958 S   0  0  0  0  0  0  0  0  0  0  0  0
   31.7538    0.8415   38.2623 C   0  0  0  0  0  0  0  0  0  0  0  0
   31.4160    0.3220   39.4224 N   0  0  0  0  0  0  0  0  0  0  0  0
   32.5529    0.0451   40.1548 C   0  0  0  0  0  0  0  0  0  0  0  0
   33.7544    0.3581   39.5479 C   0  0  0  0  0  0  0  0  0  0  0  0
   35.1535    0.1623   40.0358 C   0  0  0  0  0  0  0  0  0  0  0  0
   36.0031    1.7596   40.2523 S   0  0  0  0  0  0  0  0  0  0  0  0
   37.3495    1.5077   39.1505 C   0  0  0  0  0  0  0  0  0  0  0  0
   37.9685    2.6107   38.5823 N   0  0  0  0  0  0  0  0  0  0  0  0
   39.0263    2.4341   37.6990 C   0  0  0  0  0  0  0  0  0  0  0  0
   39.6632    3.5397   37.1308 O   0  0  0  0  0  0  0  0  0  0  0  0
   39.4247    1.1963   37.3895 N   0  0  0  0  0  0  0  0  0  0  0  0
   38.7718    0.1836   37.9723 C   0  0  0  0  0  0  0  0  0  0  0  0
   39.2686   -1.4518   37.5012 S   0  0  0  0  0  0  0  0  0  0  0  0
   37.8879   -1.7707   36.3732 C   0  0  0  0  0  0  0  0  0  0  0  0
   36.6678   -2.2872   37.0926 C   0  0  0  0  0  0  0  0  0  0  0  0
   36.7408   -3.4230   37.9076 C   0  0  0  0  0  0  0  0  0  0  0  0
   35.6123   -3.8791   38.5962 C   0  0  0  0  0  0  0  0  0  0  0  0
   34.3808   -3.2205   38.4730 C   0  0  0  0  0  0  0  0  0  0  0  0
   34.3095   -2.0901   37.6464 C   0  0  0  0  0  0  0  0  0  0  0  0
   35.4375   -1.6303   36.9623 C   0  0  0  0  0  0  0  0  0  0  0  0
   35.3499   -0.7510   36.3271 H   0  0  0  0  0  0  0  0  0  0  0  0
   33.3712   -1.5515   37.5310 H   0  0  0  0  0  0  0  0  0  0  0  0
   33.1437   -3.6686   39.2316 C   0  0  0  0  0  0  0  0  0  0  0  0
   31.9316   -2.8299   38.8204 C   0  0  0  0  0  0  0  0  0  0  0  0
   32.0627   -1.7738   39.0809 H   0  0  0  0  0  0  0  0  0  0  0  0
   31.7636   -2.8876   37.7390 H   0  0  0  0  0  0  0  0  0  0  0  0
   31.0251   -3.1899   39.3185 H   0  0  0  0  0  0  0  0  0  0  0  0
   33.3277   -3.6467   40.7515 C   0  0  0  0  0  0  0  0  0  0  0  0
   33.3712   -2.6266   41.1478 H   0  0  0  0  0  0  0  0  0  0  0  0
   34.2492   -4.1624   41.0428 H   0  0  0  0  0  0  0  0  0  0  0  0
   32.4900   -4.1526   41.2441 H   0  0  0  0  0  0  0  0  0  0  0  0
   32.9331   -4.7118   38.9597 H   0  0  0  0  0  0  0  0  0  0  0  0
   35.7122   -4.7522   39.2363 H   0  0  0  0  0  0  0  0  0  0  0  0
   37.6806   -3.9592   38.0205 H   0  0  0  0  0  0  0  0  0  0  0  0
   38.1827   -2.5044   35.6129 H   0  0  0  0  0  0  0  0  0  0  0  0
   37.6427   -0.8463   35.8369 H   0  0  0  0  0  0  0  0  0  0  0  0
   37.7553    0.2770   38.8378 N   0  0  0  0  0  0  0  0  0  0  0  0
   37.6441    3.5384   38.8167 H   0  0  0  0  0  0  0  0  0  0  0  0
   35.1228   -0.3593   40.9997 H   0  0  0  0  0  0  0  0  0  0  0  0
   35.7281   -0.4556   39.3372 H   0  0  0  0  0  0  0  0  0  0  0  0
   32.4453   -0.3917   41.1407 H   0  0  0  0  0  0  0  0  0  0  0  0
   30.7837    1.2457   37.2091 C   0  0  0  0  0  0  0  0  0  0  0  0
   30.9401    2.2924   36.9284 H   0  0  0  0  0  0  0  0  0  0  0  0
   29.7586    1.1422   37.5786 H   0  0  0  0  0  0  0  0  0  0  0  0
   30.8948    0.6361   36.3068 H   0  0  0  0  0  0  0  0  0  0  0  0
  1  2  1  0  0  0  0
  1  5  1  0  0  0  0
  2  3  2  0  0  0  0
  2 43  1  0  0  0  0
  3  4  1  0  0  0  0
  4  5  2  0  0  0  0
  4 42  1  0  0  0  0
  5  6  1  0  0  0  0
  6  7  1  0  0  0  0
  6 40  1  0  0  0  0
  6 41  1  0  0  0  0
  7  8  1  0  0  0  0
  8  9  1  0  0  0  0
  8 38  2  0  0  0  0
  9 10  1  0  0  0  0
  9 39  1  0  0  0  0
 10 11  2  0  0  0  0
 10 12  1  0  0  0  0
 12 13  2  0  0  0  0
 13 14  1  0  0  0  0
 13 38  1  0  0  0  0
 14 15  1  0  0  0  0
 15 16  1  0  0  0  0
 15 36  1  0  0  0  0
 15 37  1  0  0  0  0
 16 17  1  0  0  0  0
 16 21  2  0  0  0  0
 17 18  2  0  0  0  0
 17 35  1  0  0  0  0
 18 19  1  0  0  0  0
 18 34  1  0  0  0  0
 19 20  2  0  0  0  0
 19 24  1  0  0  0  0
 20 21  1  0  0  0  0
 20 23  1  0  0  0  0
 21 22  1  0  0  0  0
 24 25  1  0  0  0  0
 24 29  1  0  0  0  0
 24 33  1  0  0  0  0
 25 26  1  0  0  0  0
 25 27  1  0  0  0  0
 25 28  1  0  0  0  0
 29 30  1  0  0  0  0
 29 31  1  0  0  0  0
 29 32  1  0  0  0  0
 43 44  1  0  0  0  0
 43 45  1  0  0  0  0
 43 46  1  0  0  0  0
M  END
> <Gold.Goldscore.Fitness>
67.7756

> <Gold.Goldscore.External.HBond>
1.4847

> <Gold.Protein.ActiveResidues>
 GLU87   ILE88   VAL90   ASN91   ALA92   ASP94   ASN95   ARG98   ILE118  ASN120 
 LYS123  GLY124  ILE125  ILE141  PHE142  THR147  SER148  SER149  ASN150  TYR151 
 GLY160  GLY161  ARG162  ASN163  GLY164  TYR165  GLY166  ALA167  LYS168  LEU169 
 THR181  THR215  ILE217  ILE317  GLN376  LYS378  ILE33   TYR34   MG903  

> <Gold.Goldscore.Internal.HBond>
0.0

> <Gold.Goldscore.Internal.Torsion.Weighted>
-4.6232

> <Gold.Protein.RotatedTorsions>
[ 8833 2752 2751 2750 ] final  -92.65 input   60.00 | X-H torsion
[ 6906  969  968  965 ] final -179.89 input   59.99 | X-H torsion
[ 6910  975  974  971 ] final  -12.12 input   60.00 | X-H torsion
[ 6897  962  961  958 ] final   71.11 input   60.00 | X-H torsion
[ 9084 2997 2996 2994 ] final  -38.60 input   60.00 | X-H torsion
[ 7406 1497 1496 1493 ] final  170.76 input   60.00 | X-H torsion
[ 7140 1220 1219 1216 ] final  115.27 input   60.00 | X-H torsion
[ 6926  995  994  992 ] final   25.13 input   60.0

> <Gold.Goldscore.Constraint.Score>
0.0

> <Gold.Id.Protein>
1ZXM|1ZXM_protein|mol2

> <Gold.Protein.RotatedAtoms>
   40.6750    3.3830   41.8637 H   0  0  0  0  0  0  0  0  0  0  0  0  # atno 6897 bound_to 962 
   42.5663   -2.5035   38.2571 H   0  0  0  0  0  0  0  0  0  0  0  0  # atno 6906 bound_to 969 
   38.8111   -4.3840   40.0676 H   0  0  0  0  0  0  0  0  0  0  0  0  # atno 6910 bound_to 975 
   45.8911    1.1244   38.6740 H   0  0  0  0  0  0  0  0  0  0  0  0  # atno 6926 bound_to 995 
   28.0475    0.1168   43.0607 H   0  0  0  0  0  0  0  0  0  0  0  0  # atno 7140 bound_to 1220
   28.2838   -0.9017   41.0

> <Gold.Version>
5.3.0

> <Gold.Goldscore.Internal.Correction>
-0.0166

> <Gold.Goldscore.Internal.Vdw>
-1.3472

> <Gold.Goldscore.Internal.Vdw.Weighted>
-1.3472

> <Gold.Goldscore.External.HBond.Weighted>
1.4847

> <Gold.Goldscore.External.Vdw.Weighted>
72.2447

> <Gold.Goldscore.Internal.HBond.Weighted>
0.0

> <Gold.Goldscore.Hbonds>
donor molecule, donor type, donor heavy atom, donor atom, acceptor molecule, acceptor atom, score
      L1  H     1    27       P1   757  0.74

> <Gold.Goldscore.External.Vdw>
52.5416

> <Gold.Goldscore.Internal.Torsion>
-4.6232

> <Gold.Goldscore.Internal.Correction.Weighted>
-0.0166

> <Gold.Version>
5.3.0

> <Gold.Id.Protein>
1ZXM|1ZXM_protein|mol2

> <Gold.ASP.Fitness>
26.1581

> <Gold.ASP.ASP>
30.4680

> <Gold.ASP.Map>
-152.3400

> <Gold.ASP.DEClash>
3.2649

> <Gold.ASP.DEInternal>
1.0450

> <Gold.ASP.Internal.Correction>
0.1091

> <Gold.Protein.RotatedTorsions>
[ 8924 2752 2751 2750 ] final    4.01 input   60.00 | X-H torsion
[ 6908  969  968  965 ] final  156.65 input   59.99 | X-H torsion
[ 6912  975  974  971 ] final  -20.89 input   60.00 | X-H torsion
[ 6899  962  961  958 ] final   68.77 input   60.00 | X-H torsion
[ 9165 2997 2996 2994 ] final   74.34 input   60.00 | X-H torsion
[ 7410 1497 1496 1493 ] final  148.64 input   60.00 | X-H torsion
[ 7137 1220 1219 1216 ] final   25.61 input   60.00 | X-H torsion
[ 6928  995  994  992 ] final -175.71 input   60.00 | X-H torsion

> <Gold.Protein.ActiveResidues>
 GLU87   ILE88   VAL90   ASN91   ALA92   ASP94   ASN95   ARG98   ILE118  ASN120 
 LYS123  GLY124  ILE125  ILE141  PHE142  THR147  SER148  SER149  ASN150  TYR151 
 GLY160  GLY161  ARG162  ASN163  GLY164  TYR165  GLY166  ALA167  LYS168  LEU169 
 THR181  THR215  ILE217  ILE317  GLN376  LYS378  ILE33   TYR34   MG903  

> <Gold.Protein.RotatedAtoms>
   40.7022    3.3793   41.8371 H   0  0  0  0  0  0  0  0  0  0  0  0  # atno 6899 bound_to 962 
   42.2844   -2.2896   38.1166 H   0  0  0  0  0  0  0  0  0  0  0  0  # atno 6908 bound_to 969 
   38.7499   -4.2608   40.1073 H   0  0  0  0  0  0  0  0  0  0  0  0  # atno 6912 bound_to 975 
   45.8951    1.6037   40.4521 H   0  0  0  0  0  0  0  0  0  0  0  0  # atno 6928 bound_to 995 
   26.8176   -0.0024   43.5249 H   0  0  0  0  0  0  0  0  0  0  0  0  # atno 7137 bound_to 1220
   28.0333   -1.1455   40.9760 H   0  0  0  0  0  0  0  0  0  0  0  0  # atno 7410 bound_to 1497
   44.0502   -0.4421   29.3396 H   0  0  0  0  0  0  0  0  0  0  0  0  # atno 8924 bound_to 2752
   43.3832    0.6852   30.3554 H   0  0  0  0  0  0  0  0  0  0  0  0  # atno 8925 bound_to 2752
   43.5810   -0.8785   30.8682 H   0  0  0  0  0  0  0  0  0  0  0  0  # atno 8926 bound_to 2752
   34.7362   -5.1110   44.2152 H   0  0  0  0  0  0  0  0  0  0  0  0  # atno 9165 bound_to 2997
   40.9929   -2.4348   39.0958 LP  0  0  0  0  0  0  0  0  0  0  0  0  # atno 11896 bound_to 969 
   42.3725   -3.2401   39.4345 LP  0  0  0  0  0  0  0  0  0  0  0  0  # atno 11897 bound_to 969 
   37.3167   -4.3966   40.8659 LP  0  0  0  0  0  0  0  0  0  0  0  0  # atno 11898 bound_to 975 
   38.1095   -5.7341   40.3668 LP  0  0  0  0  0  0  0  0  0  0  0  0  # atno 11899 bound_to 975 
   41.9601    4.4115   41.8482 LP  0  0  0  0  0  0  0  0  0  0  0  0  # atno 11904 bound_to 962 
   40.7820    4.5435   42.9713 LP  0  0  0  0  0  0  0  0  0  0  0  0  # atno 11905 bound_to 962 
   34.0781   -3.6230   44.2467 LP  0  0  0  0  0  0  0  0  0  0  0  0  # atno 11912 bound_to 2997
   33.9687   -4.5951   45.5542 LP  0  0  0  0  0  0  0  0  0  0  0  0  # atno 11913 bound_to 2997
   26.6406   -0.7479   41.7178 LP  0  0  0  0  0  0  0  0  0  0  0  0  # atno 11922 bound_to 1497
   27.9667    0.1854   41.9099 LP  0  0  0  0  0  0  0  0  0  0  0  0  # atno 11923 bound_to 1497
   27.7716   -0.1869   44.8301 LP  0  0  0  0  0  0  0  0  0  0  0  0  # atno 11930 bound_to 1220
   28.4346    0.0783   43.3615 LP  0  0  0  0  0  0  0  0  0  0  0  0  # atno 11931 bound_to 1220

$$$$
****|SGG-4|sdf|1|dock48
  -GOLD-   9 72311473D 1   1.00000     0.00000

 46 48  0  0  0  0  0  0  0  0  1 V2000
   38.1860   -0.4961   37.1211 S   0  0  0  0  0  0  0  0  0  0  0  0
   39.5527    0.4758   36.7478 C   0  0  0  0  0  0  0  0  0  0  0  0
   39.6494    1.6004   37.4229 N   0  0  0  0  0  0  0  0  0  0  0  0
   38.5828    1.7121   38.2922 C   0  0  0  0  0  0  0  0  0  0  0  0
   37.6777    0.6679   38.2762 C   0  0  0  0  0  0  0  0  0  0  0  0
   36.4129    0.4850   39.0513 C   0  0  0  0  0  0  0  0  0  0  0  0
   36.6557   -0.6672   40.4419 S   0  0  0  0  0  0  0  0  0  0  0  0
   36.0540   -2.1379   39.6901 C   0  0  0  0  0  0  0  0  0  0  0  0
   36.8722   -2.8237   38.8052 N   0  0  0  0  0  0  0  0  0  0  0  0
   36.4121   -3.9814   38.1901 C   0  0  0  0  0  0  0  0  0  0  0  0
   37.2335   -4.6849   37.3062 O   0  0  0  0  0  0  0  0  0  0  0  0
   35.1726   -4.4125   38.4437 N   0  0  0  0  0  0  0  0  0  0  0  0
   34.4415   -3.6915   39.3022 C   0  0  0  0  0  0  0  0  0  0  0  0
   32.7780   -4.2395   39.5773 S   0  0  0  0  0  0  0  0  0  0  0  0
   32.1914   -2.7254   40.3800 C   0  0  0  0  0  0  0  0  0  0  0  0
   31.8314   -1.6518   39.3847 C   0  0  0  0  0  0  0  0  0  0  0  0
   32.4824   -0.4126   39.3969 C   0  0  0  0  0  0  0  0  0  0  0  0
   32.1649    0.5680   38.4517 C   0  0  0  0  0  0  0  0  0  0  0  0
   31.1776    0.3389   37.4830 C   0  0  0  0  0  0  0  0  0  0  0  0
   30.5199   -0.8995   37.4817 C   0  0  0  0  0  0  0  0  0  0  0  0
   30.8400   -1.8818   38.4221 C   0  0  0  0  0  0  0  0  0  0  0  0
   30.3108   -2.8324   38.3962 H   0  0  0  0  0  0  0  0  0  0  0  0
   29.7517   -1.1134   36.7415 H   0  0  0  0  0  0  0  0  0  0  0  0
   30.8307    1.3684   36.4215 C   0  0  0  0  0  0  0  0  0  0  0  0
   31.7121    2.6100   36.5729 C   0  0  0  0  0  0  0  0  0  0  0  0
   31.5404    3.1142   37.5303 H   0  0  0  0  0  0  0  0  0  0  0  0
   32.7743    2.3454   36.5219 H   0  0  0  0  0  0  0  0  0  0  0  0
   31.5086    3.3290   35.7721 H   0  0  0  0  0  0  0  0  0  0  0  0
   29.3487    1.7528   36.4161 C   0  0  0  0  0  0  0  0  0  0  0  0
   29.0751    2.3559   37.2885 H   0  0  0  0  0  0  0  0  0  0  0  0
   28.7119    0.8615   36.4080 H   0  0  0  0  0  0  0  0  0  0  0  0
   29.1112    2.3430   35.5241 H   0  0  0  0  0  0  0  0  0  0  0  0
   31.0410    0.9302   35.4364 H   0  0  0  0  0  0  0  0  0  0  0  0
   32.7062    1.5105   38.4792 H   0  0  0  0  0  0  0  0  0  0  0  0
   33.2499   -0.2020   40.1386 H   0  0  0  0  0  0  0  0  0  0  0  0
   32.9616   -2.3328   41.0552 H   0  0  0  0  0  0  0  0  0  0  0  0
   31.3217   -2.9646   41.0034 H   0  0  0  0  0  0  0  0  0  0  0  0
   34.8201   -2.5768   39.9389 N   0  0  0  0  0  0  0  0  0  0  0  0
   37.8010   -2.4746   38.6145 H   0  0  0  0  0  0  0  0  0  0  0  0
   36.0947    1.4576   39.4449 H   0  0  0  0  0  0  0  0  0  0  0  0
   35.6121    0.1041   38.4082 H   0  0  0  0  0  0  0  0  0  0  0  0
   38.5141    2.5899   38.9240 H   0  0  0  0  0  0  0  0  0  0  0  0
   40.5213    0.0349   35.7081 C   0  0  0  0  0  0  0  0  0  0  0  0
   40.9085   -0.9613   35.9458 H   0  0  0  0  0  0  0  0  0  0  0  0
   41.3682    0.7269   35.6617 H   0  0  0  0  0  0  0  0  0  0  0  0
   40.0536   -0.0141   34.7196 H   0  0  0  0  0  0  0  0  0  0  0  0
  1  2  1  0  0  0  0
  1  5  1  0  0  0  0
  2  3  2  0  0  0  0
  2 43  1  0  0  0  0
  3  4  1  0  0  0  0
  4  5  2  0  0  0  0
  4 42  1  0  0  0  0
  5  6  1  0  0  0  0
  6  7  1  0  0  0  0
  6 40  1  0  0  0  0
  6 41  1  0  0  0  0
  7  8  1  0  0  0  0
  8  9  1  0  0  0  0
  8 38  2  0  0  0  0
  9 10  1  0  0  0  0
  9 39  1  0  0  0  0
 10 11  2  0  0  0  0
 10 12  1  0  0  0  0
 12 13  2  0  0  0  0
 13 14  1  0  0  0  0
 13 38  1  0  0  0  0
 14 15  1  0  0  0  0
 15 16  1  0  0  0  0
 15 36  1  0  0  0  0
 15 37  1  0  0  0  0
 16 17  1  0  0  0  0
 16 21  2  0  0  0  0
 17 18  2  0  0  0  0
 17 35  1  0  0  0  0
 18 19  1  0  0  0  0
 18 34  1  0  0  0  0
 19 20  2  0  0  0  0
 19 24  1  0  0  0  0
 20 21  1  0  0  0  0
 20 23  1  0  0  0  0
 21 22  1  0  0  0  0
 24 25  1  0  0  0  0
 24 29  1  0  0  0  0
 24 33  1  0  0  0  0
 25 26  1  0  0  0  0
 25 27  1  0  0  0  0
 25 28  1  0  0  0  0
 29 30  1  0  0  0  0
 29 31  1  0  0  0  0
 29 32  1  0  0  0  0
 43 44  1  0  0  0  0
 43 45  1  0  0  0  0
 43 46  1  0  0  0  0
M  END
> <Gold.Goldscore.Fitness>
67.7756

> <Gold.Goldscore.External.HBond>
1.4847

> <Gold.Protein.ActiveResidues>
 GLU87   ILE88   VAL90   ASN91   ALA92   ASP94   ASN95   ARG98   ILE118  ASN120 
 LYS123  GLY124  ILE125  ILE141  PHE142  THR147  SER148  SER149  ASN150  TYR151 
 GLY160  GLY161  ARG162  ASN163  GLY164  TYR165  GLY166  ALA167  LYS168  LEU169 
 THR181  THR215  ILE217  ILE317  GLN376  LYS378  ILE33   TYR34   MG903  

> <Gold.Goldscore.Internal.HBond>
0.0

> <Gold.Goldscore.Internal.Torsion.Weighted>
-4.6232

> <Gold.Protein.RotatedTorsions>
[ 8833 2752 2751 2750 ] final  -92.65 input   60.00 | X-H torsion
[ 6906  969  968  965 ] final -179.89 input   59.99 | X-H torsion
[ 6910  975  974  971 ] final  -12.12 input   60.00 | X-H torsion
[ 6897  962  961  958 ] final   71.11 input   60.00 | X-H torsion
[ 9084 2997 2996 2994 ] final  -38.60 input   60.00 | X-H torsion
[ 7406 1497 1496 1493 ] final  170.76 input   60.00 | X-H torsion
[ 7140 1220 1219 1216 ] final  115.27 input   60.00 | X-H torsion
[ 6926  995  994  992 ] final   25.13 input   60.0

> <Gold.Goldscore.Constraint.Score>
0.0

> <Gold.Id.Protein>
1ZXM|1ZXM_protein|mol2

> <Gold.Protein.RotatedAtoms>
   40.6750    3.3830   41.8637 H   0  0  0  0  0  0  0  0  0  0  0  0  # atno 6897 bound_to 962 
   42.5663   -2.5035   38.2571 H   0  0  0  0  0  0  0  0  0  0  0  0  # atno 6906 bound_to 969 
   38.8111   -4.3840   40.0676 H   0  0  0  0  0  0  0  0  0  0  0  0  # atno 6910 bound_to 975 
   45.8911    1.1244   38.6740 H   0  0  0  0  0  0  0  0  0  0  0  0  # atno 6926 bound_to 995 
   28.0475    0.1168   43.0607 H   0  0  0  0  0  0  0  0  0  0  0  0  # atno 7140 bound_to 1220
   28.2838   -0.9017   41.0

> <Gold.Version>
5.3.0

> <Gold.Goldscore.Internal.Correction>
-0.0166

> <Gold.Goldscore.Internal.Vdw>
-1.3472

> <Gold.Goldscore.Internal.Vdw.Weighted>
-1.3472

> <Gold.Goldscore.External.HBond.Weighted>
1.4847

> <Gold.Goldscore.External.Vdw.Weighted>
72.2447

> <Gold.Goldscore.Internal.HBond.Weighted>
0.0

> <Gold.Goldscore.Hbonds>
donor molecule, donor type, donor heavy atom, donor atom, acceptor molecule, acceptor atom, score
      L1  H     1    27       P1   757  0.74

> <Gold.Goldscore.External.Vdw>
52.5416

> <Gold.Goldscore.Internal.Torsion>
-4.6232

> <Gold.Goldscore.Internal.Correction.Weighted>
-0.0166

> <Gold.Version>
5.3.0

> <Gold.Id.Protein>
1ZXM|1ZXM_protein|mol2

> <Gold.ASP.Fitness>
26.1308

> <Gold.ASP.ASP>
28.3420

> <Gold.ASP.Map>
-141.7100

> <Gold.ASP.DEClash>
1.2593

> <Gold.ASP.DEInternal>
0.9519

> <Gold.ASP.Internal.Correction>
0.1091

> <Gold.Protein.RotatedTorsions>
[ 8924 2752 2751 2750 ] final   19.88 input   60.00 | X-H torsion
[ 6908  969  968  965 ] final   99.75 input   59.99 | X-H torsion
[ 6912  975  974  971 ] final -176.42 input   60.00 | X-H torsion
[ 6899  962  961  958 ] final  151.28 input   60.00 | X-H torsion
[ 9165 2997 2996 2994 ] final  119.37 input   60.00 | X-H torsion
[ 7410 1497 1496 1493 ] final  -51.08 input   60.00 | X-H torsion
[ 7137 1220 1219 1216 ] final  130.25 input   60.00 | X-H torsion
[ 6928  995  994  992 ] final   14.34 input   60.00 | X-H torsion

> <Gold.Protein.ActiveResidues>
 GLU87   ILE88   VAL90   ASN91   ALA92   ASP94   ASN95   ARG98   ILE118  ASN120 
 LYS123  GLY124  ILE125  ILE141  PHE142  THR147  SER148  SER149  ASN150  TYR151 
 GLY160  GLY161  ARG162  ASN163  GLY164  TYR165  GLY166  ALA167  LYS168  LEU169 
 THR181  THR215  ILE217  ILE317  GLN376  LYS378  ILE33   TYR34   MG903  

> <Gold.Protein.RotatedAtoms>
   40.4201    4.0887   42.8075 H   0  0  0  0  0  0  0  0  0  0  0  0  # atno 6899 bound_to 962 
   41.4403   -2.0677   38.3010 H   0  0  0  0  0  0  0  0  0  0  0  0  # atno 6908 bound_to 969 
   37.2457   -4.9654   40.8752 H   0  0  0  0  0  0  0  0  0  0  0  0  # atno 6912 bound_to 975 
   46.0663    1.1249   38.6575 H   0  0  0  0  0  0  0  0  0  0  0  0  # atno 6928 bound_to 995 
   28.2563    0.1033   43.1864 H   0  0  0  0  0  0  0  0  0  0  0  0  # atno 7137 bound_to 1220
   27.3469    0.1525   42.0926 H   0  0  0  0  0  0  0  0  0  0  0  0  # atno 7410 bound_to 1497
   44.0045   -0.1865   29.2910 H   0  0  0  0  0  0  0  0  0  0  0  0  # atno 8924 bound_to 2752
   43.3201    0.5821   30.5904 H   0  0  0  0  0  0  0  0  0  0  0  0  # atno 8925 bound_to 2752
   43.6898   -1.0311   30.6819 H   0  0  0  0  0  0  0  0  0  0  0  0  # atno 8926 bound_to 2752
   34.5531   -5.3097   44.8795 H   0  0  0  0  0  0  0  0  0  0  0  0  # atno 9165 bound_to 2997
   41.4390   -2.9946   39.6385 LP  0  0  0  0  0  0  0  0  0  0  0  0  # atno 11896 bound_to 969 
   42.7764   -2.9037   38.7060 LP  0  0  0  0  0  0  0  0  0  0  0  0  # atno 11897 bound_to 969 
   38.5823   -5.5126   40.1254 LP  0  0  0  0  0  0  0  0  0  0  0  0  # atno 11898 bound_to 975 
   38.3586   -3.9086   40.3340 LP  0  0  0  0  0  0  0  0  0  0  0  0  # atno 11899 bound_to 975 
   41.2046    3.4809   41.5178 LP  0  0  0  0  0  0  0  0  0  0  0  0  # atno 11904 bound_to 962 
   41.8217    4.7597   42.3244 LP  0  0  0  0  0  0  0  0  0  0  0  0  # atno 11905 bound_to 962 
   34.4459   -4.0771   43.8224 LP  0  0  0  0  0  0  0  0  0  0  0  0  # atno 11912 bound_to 2997
   33.7852   -3.9409   45.3096 LP  0  0  0  0  0  0  0  0  0  0  0  0  # atno 11913 bound_to 2997
   28.4164   -0.6650   41.1784 LP  0  0  0  0  0  0  0  0  0  0  0  0  # atno 11922 bound_to 1497
   26.8822   -1.2048   41.3248 LP  0  0  0  0  0  0  0  0  0  0  0  0  # atno 11923 bound_to 1497
   26.7410   -0.0462   43.7600 LP  0  0  0  0  0  0  0  0  0  0  0  0  # atno 11930 bound_to 1220
   28.0162   -0.1690   44.7726 LP  0  0  0  0  0  0  0  0  0  0  0  0  # atno 11931 bound_to 1220

$$$$
****|SGG-4|sdf|1|dock44
  -GOLD-   9 72311473D 1   1.00000     0.00000

 46 48  0  0  0  0  0  0  0  0  1 V2000
   37.1142   -0.1906   37.3563 S   0  0  0  0  0  0  0  0  0  0  0  0
   36.6775    1.2309   38.2165 C   0  0  0  0  0  0  0  0  0  0  0  0
   35.3973    1.3561   38.4910 N   0  0  0  0  0  0  0  0  0  0  0  0
   34.7086    0.2671   37.9956 C   0  0  0  0  0  0  0  0  0  0  0  0
   35.4703   -0.6859   37.3463 C   0  0  0  0  0  0  0  0  0  0  0  0
   35.0496   -1.9517   36.6719 C   0  0  0  0  0  0  0  0  0  0  0  0
   35.8249   -3.4024   37.4558 S   0  0  0  0  0  0  0  0  0  0  0  0
   35.8889   -2.8195   39.1130 C   0  0  0  0  0  0  0  0  0  0  0  0
   37.0942   -2.3530   39.6153 N   0  0  0  0  0  0  0  0  0  0  0  0
   37.1702   -1.8994   40.9264 C   0  0  0  0  0  0  0  0  0  0  0  0
   38.3773   -1.4172   41.4373 O   0  0  0  0  0  0  0  0  0  0  0  0
   36.0802   -1.9366   41.6992 N   0  0  0  0  0  0  0  0  0  0  0  0
   34.9571   -2.4083   41.1445 C   0  0  0  0  0  0  0  0  0  0  0  0
   33.5375   -2.5124   42.2014 S   0  0  0  0  0  0  0  0  0  0  0  0
   32.3889   -3.1309   40.9448 C   0  0  0  0  0  0  0  0  0  0  0  0
   32.0558   -2.0868   39.9095 C   0  0  0  0  0  0  0  0  0  0  0  0
   31.7809   -0.7660   40.2830 C   0  0  0  0  0  0  0  0  0  0  0  0
   31.5024    0.2044   39.3153 C   0  0  0  0  0  0  0  0  0  0  0  0
   31.4756   -0.1264   37.9532 C   0  0  0  0  0  0  0  0  0  0  0  0
   31.7401   -1.4532   37.5844 C   0  0  0  0  0  0  0  0  0  0  0  0
   32.0238   -2.4223   38.5499 C   0  0  0  0  0  0  0  0  0  0  0  0
   32.2235   -3.4439   38.2322 H   0  0  0  0  0  0  0  0  0  0  0  0
   31.7324   -1.7446   36.5362 H   0  0  0  0  0  0  0  0  0  0  0  0
   31.2095    0.9084   36.8738 C   0  0  0  0  0  0  0  0  0  0  0  0
   32.0665    2.1547   37.1053 C   0  0  0  0  0  0  0  0  0  0  0  0
   31.8134    2.6508   38.0488 H   0  0  0  0  0  0  0  0  0  0  0  0
   33.1313    1.8975   37.1397 H   0  0  0  0  0  0  0  0  0  0  0  0
   31.9242    2.8781   36.2954 H   0  0  0  0  0  0  0  0  0  0  0  0
   29.7301    1.2831   36.7496 C   0  0  0  0  0  0  0  0  0  0  0  0
   29.3817    1.8780   37.6007 H   0  0  0  0  0  0  0  0  0  0  0  0
   29.1026    0.3878   36.6833 H   0  0  0  0  0  0  0  0  0  0  0  0
   29.5623    1.8782   35.8451 H   0  0  0  0  0  0  0  0  0  0  0  0
   31.5029    0.4789   35.9063 H   0  0  0  0  0  0  0  0  0  0  0  0
   31.3144    1.2243   39.6416 H   0  0  0  0  0  0  0  0  0  0  0  0
   31.7893   -0.4782   41.3321 H   0  0  0  0  0  0  0  0  0  0  0  0
   31.4570   -3.4658   41.4167 H   0  0  0  0  0  0  0  0  0  0  0  0
   32.8280   -4.0113   40.4607 H   0  0  0  0  0  0  0  0  0  0  0  0
   34.8064   -2.8505   39.8903 N   0  0  0  0  0  0  0  0  0  0  0  0
   37.9112   -2.3461   39.0210 H   0  0  0  0  0  0  0  0  0  0  0  0
   33.9597   -2.0464   36.7446 H   0  0  0  0  0  0  0  0  0  0  0  0
   35.3157   -1.9355   35.6095 H   0  0  0  0  0  0  0  0  0  0  0  0
   33.6354    0.2190   38.1384 H   0  0  0  0  0  0  0  0  0  0  0  0
   37.7166    2.2298   38.5855 C   0  0  0  0  0  0  0  0  0  0  0  0
   38.5146    1.7535   39.1643 H   0  0  0  0  0  0  0  0  0  0  0  0
   37.2783    3.0232   39.1992 H   0  0  0  0  0  0  0  0  0  0  0  0
   38.1702    2.6825   37.6981 H   0  0  0  0  0  0  0  0  0  0  0  0
  1  2  1  0  0  0  0
  1  5  1  0  0  0  0
  2  3  2  0  0  0  0
  2 43  1  0  0  0  0
  3  4  1  0  0  0  0
  4  5  2  0  0  0  0
  4 42  1  0  0  0  0
  5  6  1  0  0  0  0
  6  7  1  0  0  0  0
  6 40  1  0  0  0  0
  6 41  1  0  0  0  0
  7  8  1  0  0  0  0
  8  9  1  0  0  0  0
  8 38  2  0  0  0  0
  9 10  1  0  0  0  0
  9 39  1  0  0  0  0
 10 11  2  0  0  0  0
 10 12  1  0  0  0  0
 12 13  2  0  0  0  0
 13 14  1  0  0  0  0
 13 38  1  0  0  0  0
 14 15  1  0  0  0  0
 15 16  1  0  0  0  0
 15 36  1  0  0  0  0
 15 37  1  0  0  0  0
 16 17  1  0  0  0  0
 16 21  2  0  0  0  0
 17 18  2  0  0  0  0
 17 35  1  0  0  0  0
 18 19  1  0  0  0  0
 18 34  1  0  0  0  0
 19 20  2  0  0  0  0
 19 24  1  0  0  0  0
 20 21  1  0  0  0  0
 20 23  1  0  0  0  0
 21 22  1  0  0  0  0
 24 25  1  0  0  0  0
 24 29  1  0  0  0  0
 24 33  1  0  0  0  0
 25 26  1  0  0  0  0
 25 27  1  0  0  0  0
 25 28  1  0  0  0  0
 29 30  1  0  0  0  0
 29 31  1  0  0  0  0
 29 32  1  0  0  0  0
 43 44  1  0  0  0  0
 43 45  1  0  0  0  0
 43 46  1  0  0  0  0
M  END
> <Gold.Goldscore.Fitness>
67.7756

> <Gold.Goldscore.External.HBond>
1.4847

> <Gold.Protein.ActiveResidues>
 GLU87   ILE88   VAL90   ASN91   ALA92   ASP94   ASN95   ARG98   ILE118  ASN120 
 LYS123  GLY124  ILE125  ILE141  PHE142  THR147  SER148  SER149  ASN150  TYR151 
 GLY160  GLY161  ARG162  ASN163  GLY164  TYR165  GLY166  ALA167  LYS168  LEU169 
 THR181  THR215  ILE217  ILE317  GLN376  LYS378  ILE33   TYR34   MG903  

> <Gold.Goldscore.Internal.HBond>
0.0

> <Gold.Goldscore.Internal.Torsion.Weighted>
-4.6232

> <Gold.Protein.RotatedTorsions>
[ 8833 2752 2751 2750 ] final  -92.65 input   60.00 | X-H torsion
[ 6906  969  968  965 ] final -179.89 input   59.99 | X-H torsion
[ 6910  975  974  971 ] final  -12.12 input   60.00 | X-H torsion
[ 6897  962  961  958 ] final   71.11 input   60.00 | X-H torsion
[ 9084 2997 2996 2994 ] final  -38.60 input   60.00 | X-H torsion
[ 7406 1497 1496 1493 ] final  170.76 input   60.00 | X-H torsion
[ 7140 1220 1219 1216 ] final  115.27 input   60.00 | X-H torsion
[ 6926  995  994  992 ] final   25.13 input   60.0

> <Gold.Goldscore.Constraint.Score>
0.0

> <Gold.Id.Protein>
1ZXM|1ZXM_protein|mol2

> <Gold.Protein.RotatedAtoms>
   40.6750    3.3830   41.8637 H   0  0  0  0  0  0  0  0  0  0  0  0  # atno 6897 bound_to 962 
   42.5663   -2.5035   38.2571 H   0  0  0  0  0  0  0  0  0  0  0  0  # atno 6906 bound_to 969 
   38.8111   -4.3840   40.0676 H   0  0  0  0  0  0  0  0  0  0  0  0  # atno 6910 bound_to 975 
   45.8911    1.1244   38.6740 H   0  0  0  0  0  0  0  0  0  0  0  0  # atno 6926 bound_to 995 
   28.0475    0.1168   43.0607 H   0  0  0  0  0  0  0  0  0  0  0  0  # atno 7140 bound_to 1220
   28.2838   -0.9017   41.0

> <Gold.Version>
5.3.0

> <Gold.Goldscore.Internal.Correction>
-0.0166

> <Gold.Goldscore.Internal.Vdw>
-1.3472

> <Gold.Goldscore.Internal.Vdw.Weighted>
-1.3472

> <Gold.Goldscore.External.HBond.Weighted>
1.4847

> <Gold.Goldscore.External.Vdw.Weighted>
72.2447

> <Gold.Goldscore.Internal.HBond.Weighted>
0.0

> <Gold.Goldscore.Hbonds>
donor molecule, donor type, donor heavy atom, donor atom, acceptor molecule, acceptor atom, score
      L1  H     1    27       P1   757  0.74

> <Gold.Goldscore.External.Vdw>
52.5416

> <Gold.Goldscore.Internal.Torsion>
-4.6232

> <Gold.Goldscore.Internal.Correction.Weighted>
-0.0166

> <Gold.Version>
5.3.0

> <Gold.Id.Protein>
1ZXM|1ZXM_protein|mol2

> <Gold.ASP.Fitness>
25.9625

> <Gold.ASP.ASP>
32.1520

> <Gold.ASP.Map>
-160.7600

> <Gold.ASP.DEClash>
3.9720

> <Gold.ASP.DEInternal>
2.2175

> <Gold.ASP.Internal.Correction>
0.1091

> <Gold.Protein.RotatedTorsions>
[ 8924 2752 2751 2750 ] final  -81.44 input   60.00 | X-H torsion
[ 6908  969  968  965 ] final   51.41 input   59.99 | X-H torsion
[ 6912  975  974  971 ] final   -2.66 input   60.00 | X-H torsion
[ 6899  962  961  958 ] final -107.30 input   60.00 | X-H torsion
[ 9165 2997 2996 2994 ] final   67.33 input   60.00 | X-H torsion
[ 7410 1497 1496 1493 ] final -105.64 input   60.00 | X-H torsion
[ 7137 1220 1219 1216 ] final  144.20 input   60.00 | X-H torsion
[ 6928  995  994  992 ] final  135.74 input   60.00 | X-H torsion

> <Gold.Protein.ActiveResidues>
 GLU87   ILE88   VAL90   ASN91   ALA92   ASP94   ASN95   ARG98   ILE118  ASN120 
 LYS123  GLY124  ILE125  ILE141  PHE142  THR147  SER148  SER149  ASN150  TYR151 
 GLY160  GLY161  ARG162  ASN163  GLY164  TYR165  GLY166  ALA167  LYS168  LEU169 
 THR181  THR215  ILE217  ILE317  GLN376  LYS378  ILE33   TYR34   MG903  

> <Gold.Protein.RotatedAtoms>
   41.6387    4.8313   42.5556 H   0  0  0  0  0  0  0  0  0  0  0  0  # atno 6899 bound_to 962 
   41.0164   -2.3028   38.8951 H   0  0  0  0  0  0  0  0  0  0  0  0  # atno 6908 bound_to 969 
   38.8575   -4.5277   40.0348 H   0  0  0  0  0  0  0  0  0  0  0  0  # atno 6912 bound_to 975 
   45.2614    1.4732   40.0348 H   0  0  0  0  0  0  0  0  0  0  0  0  # atno 6928 bound_to 995 
   28.4154    0.0823   43.3475 H   0  0  0  0  0  0  0  0  0  0  0  0  # atno 7137 bound_to 1220
   28.1479    0.1011   41.7887 H   0  0  0  0  0  0  0  0  0  0  0  0  # atno 7410 bound_to 1497
   43.8153   -1.1300   30.4157 H   0  0  0  0  0  0  0  0  0  0  0  0  # atno 8924 bound_to 2752
   43.9186    0.1104   29.3213 H   0  0  0  0  0  0  0  0  0  0  0  0  # atno 8925 bound_to 2752
   43.2805    0.3841   30.8263 H   0  0  0  0  0  0  0  0  0  0  0  0  # atno 8926 bound_to 2752
   34.7403   -5.0380   44.1272 H   0  0  0  0  0  0  0  0  0  0  0  0  # atno 9165 bound_to 2997
   42.1662   -3.2422   39.5612 LP  0  0  0  0  0  0  0  0  0  0  0  0  # atno 11896 bound_to 969 
   42.4761   -2.4193   38.1852 LP  0  0  0  0  0  0  0  0  0  0  0  0  # atno 11897 bound_to 969 
   37.4704   -4.1498   40.7971 LP  0  0  0  0  0  0  0  0  0  0  0  0  # atno 11898 bound_to 975 
   37.8474   -5.7122   40.5086 LP  0  0  0  0  0  0  0  0  0  0  0  0  # atno 11899 bound_to 975 
   40.3385    3.8558   42.6310 LP  0  0  0  0  0  0  0  0  0  0  0  0  # atno 11904 bound_to 962 
   41.4605    3.6369   41.4649 LP  0  0  0  0  0  0  0  0  0  0  0  0  # atno 11905 bound_to 962 
   34.0254   -3.5924   44.3444 LP  0  0  0  0  0  0  0  0  0  0  0  0  # atno 11912 bound_to 2997
   34.0173   -4.6992   45.5451 LP  0  0  0  0  0  0  0  0  0  0  0  0  # atno 11913 bound_to 2997
   27.8334   -1.2659   40.9639 LP  0  0  0  0  0  0  0  0  0  0  0  0  # atno 11922 bound_to 1497
   26.6586   -0.5522   41.8455 LP  0  0  0  0  0  0  0  0  0  0  0  0  # atno 11923 bound_to 1497
   26.8024   -0.0082   43.5427 LP  0  0  0  0  0  0  0  0  0  0  0  0  # atno 11930 bound_to 1220
   27.7946   -0.1857   44.8276 LP  0  0  0  0  0  0  0  0  0  0  0  0  # atno 11931 bound_to 1220

$$$$
****|SGG-4|sdf|1|dock71
  -GOLD-   9 72311493D 1   1.00000     0.00000

 46 48  0  0  0  0  0  0  0  0  1 V2000
   39.5279    1.5573   35.9164 S   0  0  0  0  0  0  0  0  0  0  0  0
   40.7264    0.5697   35.1819 C   0  0  0  0  0  0  0  0  0  0  0  0
   40.9938   -0.5562   35.8071 N   0  0  0  0  0  0  0  0  0  0  0  0
   40.2090   -0.6555   36.9385 C   0  0  0  0  0  0  0  0  0  0  0  0
   39.3439    0.3973   37.1687 C   0  0  0  0  0  0  0  0  0  0  0  0
   38.3922    0.6253   38.2985 C   0  0  0  0  0  0  0  0  0  0  0  0
   38.7589   -0.4806   39.6994 S   0  0  0  0  0  0  0  0  0  0  0  0
   37.3548   -1.5332   39.5949 C   0  0  0  0  0  0  0  0  0  0  0  0
   37.3452   -2.5492   38.6513 N   0  0  0  0  0  0  0  0  0  0  0  0
   36.2405   -3.3848   38.5430 C   0  0  0  0  0  0  0  0  0  0  0  0
   36.2267   -4.4179   37.6031 O   0  0  0  0  0  0  0  0  0  0  0  0
   35.1858   -3.1868   39.3398 N   0  0  0  0  0  0  0  0  0  0  0  0
   35.2677   -2.1807   40.2187 C   0  0  0  0  0  0  0  0  0  0  0  0
   33.8356   -1.8900   41.2224 S   0  0  0  0  0  0  0  0  0  0  0  0
   32.6239   -2.5550   40.0518 C   0  0  0  0  0  0  0  0  0  0  0  0
   32.1834   -1.5293   39.0385 C   0  0  0  0  0  0  0  0  0  0  0  0
   31.1732   -1.8198   38.1140 C   0  0  0  0  0  0  0  0  0  0  0  0
   30.7483   -0.8537   37.1965 C   0  0  0  0  0  0  0  0  0  0  0  0
   31.3349    0.4195   37.1706 C   0  0  0  0  0  0  0  0  0  0  0  0
   32.3544    0.7022   38.0908 C   0  0  0  0  0  0  0  0  0  0  0  0
   32.7760   -0.2604   39.0114 C   0  0  0  0  0  0  0  0  0  0  0  0
   33.5706   -0.0111   39.7120 H   0  0  0  0  0  0  0  0  0  0  0  0
   32.8288    1.6813   38.1024 H   0  0  0  0  0  0  0  0  0  0  0  0
   30.8758    1.5030   36.2104 C   0  0  0  0  0  0  0  0  0  0  0  0
   31.7259    2.7638   36.3812 C   0  0  0  0  0  0  0  0  0  0  0  0
   31.6112    3.1971   37.3809 H   0  0  0  0  0  0  0  0  0  0  0  0
   32.7891    2.5426   36.2344 H   0  0  0  0  0  0  0  0  0  0  0  0
   31.4394    3.5258   35.6486 H   0  0  0  0  0  0  0  0  0  0  0  0
   29.3861    1.8318   36.3401 C   0  0  0  0  0  0  0  0  0  0  0  0
   29.1602    2.3656   37.2694 H   0  0  0  0  0  0  0  0  0  0  0  0
   28.7794    0.9200   36.3178 H   0  0  0  0  0  0  0  0  0  0  0  0
   29.0630    2.4702   35.5104 H   0  0  0  0  0  0  0  0  0  0  0  0
   31.0248    1.1387   35.1848 H   0  0  0  0  0  0  0  0  0  0  0  0
   29.9469   -1.1086   36.5075 H   0  0  0  0  0  0  0  0  0  0  0  0
   30.7013   -2.7999   38.1051 H   0  0  0  0  0  0  0  0  0  0  0  0
   31.7394   -2.9186   40.5892 H   0  0  0  0  0  0  0  0  0  0  0  0
   33.0581   -3.4229   39.5414 H   0  0  0  0  0  0  0  0  0  0  0  0
   36.2994   -1.3448   40.3870 N   0  0  0  0  0  0  0  0  0  0  0  0
   38.1456   -2.6745   38.0476 H   0  0  0  0  0  0  0  0  0  0  0  0
   38.4813    1.6659   38.6322 H   0  0  0  0  0  0  0  0  0  0  0  0
   37.3577    0.4627   37.9769 H   0  0  0  0  0  0  0  0  0  0  0  0
   40.3109   -1.5308   37.5693 H   0  0  0  0  0  0  0  0  0  0  0  0
   41.3984    1.0155   33.9315 C   0  0  0  0  0  0  0  0  0  0  0  0
   40.6563    1.2271   33.1547 H   0  0  0  0  0  0  0  0  0  0  0  0
   42.0657    0.2314   33.5599 H   0  0  0  0  0  0  0  0  0  0  0  0
   41.9833    1.9264   34.0939 H   0  0  0  0  0  0  0  0  0  0  0  0
  1  2  1  0  0  0  0
  1  5  1  0  0  0  0
  2  3  2  0  0  0  0
  2 43  1  0  0  0  0
  3  4  1  0  0  0  0
  4  5  2  0  0  0  0
  4 42  1  0  0  0  0
  5  6  1  0  0  0  0
  6  7  1  0  0  0  0
  6 40  1  0  0  0  0
  6 41  1  0  0  0  0
  7  8  1  0  0  0  0
  8  9  1  0  0  0  0
  8 38  2  0  0  0  0
  9 10  1  0  0  0  0
  9 39  1  0  0  0  0
 10 11  2  0  0  0  0
 10 12  1  0  0  0  0
 12 13  2  0  0  0  0
 13 14  1  0  0  0  0
 13 38  1  0  0  0  0
 14 15  1  0  0  0  0
 15 16  1  0  0  0  0
 15 36  1  0  0  0  0
 15 37  1  0  0  0  0
 16 17  1  0  0  0  0
 16 21  2  0  0  0  0
 17 18  2  0  0  0  0
 17 35  1  0  0  0  0
 18 19  1  0  0  0  0
 18 34  1  0  0  0  0
 19 20  2  0  0  0  0
 19 24  1  0  0  0  0
 20 21  1  0  0  0  0
 20 23  1  0  0  0  0
 21 22  1  0  0  0  0
 24 25  1  0  0  0  0
 24 29  1  0  0  0  0
 24 33  1  0  0  0  0
 25 26  1  0  0  0  0
 25 27  1  0  0  0  0
 25 28  1  0  0  0  0
 29 30  1  0  0  0  0
 29 31  1  0  0  0  0
 29 32  1  0  0  0  0
 43 44  1  0  0  0  0
 43 45  1  0  0  0  0
 43 46  1  0  0  0  0
M  END
> <Gold.Goldscore.Fitness>
67.7756

> <Gold.Goldscore.External.HBond>
1.4847

> <Gold.Protein.ActiveResidues>
 GLU87   ILE88   VAL90   ASN91   ALA92   ASP94   ASN95   ARG98   ILE118  ASN120 
 LYS123  GLY124  ILE125  ILE141  PHE142  THR147  SER148  SER149  ASN150  TYR151 
 GLY160  GLY161  ARG162  ASN163  GLY164  TYR165  GLY166  ALA167  LYS168  LEU169 
 THR181  THR215  ILE217  ILE317  GLN376  LYS378  ILE33   TYR34   MG903  

> <Gold.Goldscore.Internal.HBond>
0.0

> <Gold.Goldscore.Internal.Torsion.Weighted>
-4.6232

> <Gold.Protein.RotatedTorsions>
[ 8833 2752 2751 2750 ] final  -92.65 input   60.00 | X-H torsion
[ 6906  969  968  965 ] final -179.89 input   59.99 | X-H torsion
[ 6910  975  974  971 ] final  -12.12 input   60.00 | X-H torsion
[ 6897  962  961  958 ] final   71.11 input   60.00 | X-H torsion
[ 9084 2997 2996 2994 ] final  -38.60 input   60.00 | X-H torsion
[ 7406 1497 1496 1493 ] final  170.76 input   60.00 | X-H torsion
[ 7140 1220 1219 1216 ] final  115.27 input   60.00 | X-H torsion
[ 6926  995  994  992 ] final   25.13 input   60.0

> <Gold.Goldscore.Constraint.Score>
0.0

> <Gold.Id.Protein>
1ZXM|1ZXM_protein|mol2

> <Gold.Protein.RotatedAtoms>
   40.6750    3.3830   41.8637 H   0  0  0  0  0  0  0  0  0  0  0  0  # atno 6897 bound_to 962 
   42.5663   -2.5035   38.2571 H   0  0  0  0  0  0  0  0  0  0  0  0  # atno 6906 bound_to 969 
   38.8111   -4.3840   40.0676 H   0  0  0  0  0  0  0  0  0  0  0  0  # atno 6910 bound_to 975 
   45.8911    1.1244   38.6740 H   0  0  0  0  0  0  0  0  0  0  0  0  # atno 6926 bound_to 995 
   28.0475    0.1168   43.0607 H   0  0  0  0  0  0  0  0  0  0  0  0  # atno 7140 bound_to 1220
   28.2838   -0.9017   41.0

> <Gold.Version>
5.3.0

> <Gold.Goldscore.Internal.Correction>
-0.0166

> <Gold.Goldscore.Internal.Vdw>
-1.3472

> <Gold.Goldscore.Internal.Vdw.Weighted>
-1.3472

> <Gold.Goldscore.External.HBond.Weighted>
1.4847

> <Gold.Goldscore.External.Vdw.Weighted>
72.2447

> <Gold.Goldscore.Internal.HBond.Weighted>
0.0

> <Gold.Goldscore.Hbonds>
donor molecule, donor type, donor heavy atom, donor atom, acceptor molecule, acceptor atom, score
      L1  H     1    27       P1   757  0.74

> <Gold.Goldscore.External.Vdw>
52.5416

> <Gold.Goldscore.Internal.Torsion>
-4.6232

> <Gold.Goldscore.Internal.Correction.Weighted>
-0.0166

> <Gold.Version>
5.3.0

> <Gold.Id.Protein>
1ZXM|1ZXM_protein|mol2

> <Gold.ASP.Fitness>
25.9421

> <Gold.ASP.ASP>
29.3820

> <Gold.ASP.Map>
-146.9100

> <Gold.ASP.DEClash>
2.1522

> <Gold.ASP.DEInternal>
1.2877

> <Gold.ASP.Internal.Correction>
0.1091

> <Gold.Protein.RotatedTorsions>
[ 8924 2752 2751 2750 ] final   38.91 input   60.00 | X-H torsion
[ 6908  969  968  965 ] final -160.79 input   59.99 | X-H torsion
[ 6912  975  974  971 ] final -128.43 input   60.00 | X-H torsion
[ 6899  962  961  958 ] final -146.72 input   60.00 | X-H torsion
[ 9165 2997 2996 2994 ] final    2.35 input   60.00 | X-H torsion
[ 7410 1497 1496 1493 ] final    2.34 input   60.00 | X-H torsion
[ 7137 1220 1219 1216 ] final   30.47 input   60.00 | X-H torsion
[ 6928  995  994  992 ] final  113.44 input   60.00 | X-H torsion

> <Gold.Protein.ActiveResidues>
 GLU87   ILE88   VAL90   ASN91   ALA92   ASP94   ASN95   ARG98   ILE118  ASN120 
 LYS123  GLY124  ILE125  ILE141  PHE142  THR147  SER148  SER149  ASN150  TYR151 
 GLY160  GLY161  ARG162  ASN163  GLY164  TYR165  GLY166  ALA167  LYS168  LEU169 
 THR181  THR215  ILE217  ILE317  GLN376  LYS378  ILE33   TYR34   MG903  

> <Gold.Protein.RotatedAtoms>
   41.1185    4.7466   42.9035 H   0  0  0  0  0  0  0  0  0  0  0  0  # atno 6899 bound_to 962 
   42.7141   -2.6975   38.4494 H   0  0  0  0  0  0  0  0  0  0  0  0  # atno 6908 bound_to 969 
   37.4200   -4.2261   40.8225 H   0  0  0  0  0  0  0  0  0  0  0  0  # atno 6912 bound_to 975 
   45.1376    1.3813   39.7072 H   0  0  0  0  0  0  0  0  0  0  0  0  # atno 6928 bound_to 995 
   26.8529    0.0103   43.4550 H   0  0  0  0  0  0  0  0  0  0  0  0  # atno 7137 bound_to 1220
   26.7218   -0.3878   41.9335 H   0  0  0  0  0  0  0  0  0  0  0  0  # atno 7410 bound_to 1497
   43.9168    0.1157   29.3227 H   0  0  0  0  0  0  0  0  0  0  0  0  # atno 8924 bound_to 2752
   43.2801    0.3798   30.8301 H   0  0  0  0  0  0  0  0  0  0  0  0  # atno 8925 bound_to 2752
   43.8175   -1.1309   30.4104 H   0  0  0  0  0  0  0  0  0  0  0  0  # atno 8926 bound_to 2752
   34.4693   -4.1202   43.8175 H   0  0  0  0  0  0  0  0  0  0  0  0  # atno 9165 bound_to 2997
   41.1940   -2.1213   38.5217 LP  0  0  0  0  0  0  0  0  0  0  0  0  # atno 11896 bound_to 969 
   41.7386   -3.1428   39.6734 LP  0  0  0  0  0  0  0  0  0  0  0  0  # atno 11897 bound_to 969 
   37.9293   -5.7294   40.4637 LP  0  0  0  0  0  0  0  0  0  0  0  0  # atno 11898 bound_to 975 
   38.8361   -4.4363   40.0488 LP  0  0  0  0  0  0  0  0  0  0  0  0  # atno 11899 bound_to 975 
   40.4561    3.4734   42.1367 LP  0  0  0  0  0  0  0  0  0  0  0  0  # atno 11904 bound_to 962 
   41.8667    4.1046   41.6089 LP  0  0  0  0  0  0  0  0  0  0  0  0  # atno 11905 bound_to 962 
   33.7827   -3.9045   45.2770 LP  0  0  0  0  0  0  0  0  0  0  0  0  # atno 11912 bound_to 2997
   34.5330   -5.3114   44.9243 LP  0  0  0  0  0  0  0  0  0  0  0  0  # atno 11913 bound_to 2997
   28.2807    0.0040   41.6807 LP  0  0  0  0  0  0  0  0  0  0  0  0  # atno 11922 bound_to 1497
   27.6475   -1.3296   40.9827 LP  0  0  0  0  0  0  0  0  0  0  0  0  # atno 11923 bound_to 1497
   27.6919   -0.1905   44.8346 LP  0  0  0  0  0  0  0  0  0  0  0  0  # atno 11930 bound_to 1220
   28.4788    0.0690   43.4275 LP  0  0  0  0  0  0  0  0  0  0  0  0  # atno 11931 bound_to 1220

$$$$
****|SGG-4|sdf|1|dock64
  -GOLD-   9 72311493D 1   1.00000     0.00000

 46 48  0  0  0  0  0  0  0  0  1 V2000
   36.4311   -5.5724   37.6152 S   0  0  0  0  0  0  0  0  0  0  0  0
   36.3739   -6.9833   38.5937 C   0  0  0  0  0  0  0  0  0  0  0  0
   35.7462   -6.8512   39.7420 N   0  0  0  0  0  0  0  0  0  0  0  0
   35.2772   -5.5589   39.8676 C   0  0  0  0  0  0  0  0  0  0  0  0
   35.5488   -4.7115   38.8103 C   0  0  0  0  0  0  0  0  0  0  0  0
   35.2225   -3.2634   38.6352 C   0  0  0  0  0  0  0  0  0  0  0  0
   35.6882   -2.6817   36.9724 S   0  0  0  0  0  0  0  0  0  0  0  0
   37.0648   -1.6783   37.4064 C   0  0  0  0  0  0  0  0  0  0  0  0
   38.3189   -2.0093   36.9161 N   0  0  0  0  0  0  0  0  0  0  0  0
   39.4227   -1.2373   37.2568 C   0  0  0  0  0  0  0  0  0  0  0  0
   40.6879   -1.5565   36.7585 O   0  0  0  0  0  0  0  0  0  0  0  0
   39.2664   -0.1909   38.0736 N   0  0  0  0  0  0  0  0  0  0  0  0
   38.0265    0.0589   38.5117 C   0  0  0  0  0  0  0  0  0  0  0  0
   37.8466    1.4097   39.6456 S   0  0  0  0  0  0  0  0  0  0  0  0
   36.2633    2.0102   39.0027 C   0  0  0  0  0  0  0  0  0  0  0  0
   35.1601    0.9942   39.1563 C   0  0  0  0  0  0  0  0  0  0  0  0
   35.1013    0.1612   40.2799 C   0  0  0  0  0  0  0  0  0  0  0  0
   34.0584   -0.7582   40.4309 C   0  0  0  0  0  0  0  0  0  0  0  0
   33.0595   -0.8781   39.4544 C   0  0  0  0  0  0  0  0  0  0  0  0
   33.1288   -0.0498   38.3251 C   0  0  0  0  0  0  0  0  0  0  0  0
   34.1672    0.8728   38.1757 C   0  0  0  0  0  0  0  0  0  0  0  0
   34.1942    1.5006   37.2873 H   0  0  0  0  0  0  0  0  0  0  0  0
   32.3682   -0.1124   37.5497 H   0  0  0  0  0  0  0  0  0  0  0  0
   31.8951   -1.8420   39.6016 C   0  0  0  0  0  0  0  0  0  0  0  0
   30.6291   -1.0910   40.0197 C   0  0  0  0  0  0  0  0  0  0  0  0
   30.7421   -0.6232   41.0039 H   0  0  0  0  0  0  0  0  0  0  0  0
   30.3872   -0.2999   39.3009 H   0  0  0  0  0  0  0  0  0  0  0  0
   29.7728   -1.7722   40.0666 H   0  0  0  0  0  0  0  0  0  0  0  0
   32.1851   -2.9949   40.5665 C   0  0  0  0  0  0  0  0  0  0  0  0
   32.2217   -2.6618   41.6092 H   0  0  0  0  0  0  0  0  0  0  0  0
   33.1420   -3.4731   40.3305 H   0  0  0  0  0  0  0  0  0  0  0  0
   31.4021   -3.7579   40.4951 H   0  0  0  0  0  0  0  0  0  0  0  0
   31.7015   -2.2990   38.6217 H   0  0  0  0  0  0  0  0  0  0  0  0
   34.0343   -1.3737   41.3267 H   0  0  0  0  0  0  0  0  0  0  0  0
   35.8637    0.2264   41.0531 H   0  0  0  0  0  0  0  0  0  0  0  0
   36.3591    2.2650   37.9401 H   0  0  0  0  0  0  0  0  0  0  0  0
   35.9938    2.9369   39.5232 H   0  0  0  0  0  0  0  0  0  0  0  0
   36.9180   -0.6314   38.2184 N   0  0  0  0  0  0  0  0  0  0  0  0
   38.4203   -2.8126   36.3118 H   0  0  0  0  0  0  0  0  0  0  0  0
   34.1438   -3.1242   38.7731 H   0  0  0  0  0  0  0  0  0  0  0  0
   35.7388   -2.6532   39.3841 H   0  0  0  0  0  0  0  0  0  0  0  0
   34.7353   -5.2851   40.7653 H   0  0  0  0  0  0  0  0  0  0  0  0
   37.0236   -8.2396   38.1320 C   0  0  0  0  0  0  0  0  0  0  0  0
   36.6359   -8.5307   37.1504 H   0  0  0  0  0  0  0  0  0  0  0  0
   36.8168   -9.0532   38.8344 H   0  0  0  0  0  0  0  0  0  0  0  0
   38.1080   -8.1204   38.0425 H   0  0  0  0  0  0  0  0  0  0  0  0
  1  2  1  0  0  0  0
  1  5  1  0  0  0  0
  2  3  2  0  0  0  0
  2 43  1  0  0  0  0
  3  4  1  0  0  0  0
  4  5  2  0  0  0  0
  4 42  1  0  0  0  0
  5  6  1  0  0  0  0
  6  7  1  0  0  0  0
  6 40  1  0  0  0  0
  6 41  1  0  0  0  0
  7  8  1  0  0  0  0
  8  9  1  0  0  0  0
  8 38  2  0  0  0  0
  9 10  1  0  0  0  0
  9 39  1  0  0  0  0
 10 11  2  0  0  0  0
 10 12  1  0  0  0  0
 12 13  2  0  0  0  0
 13 14  1  0  0  0  0
 13 38  1  0  0  0  0
 14 15  1  0  0  0  0
 15 16  1  0  0  0  0
 15 36  1  0  0  0  0
 15 37  1  0  0  0  0
 16 17  1  0  0  0  0
 16 21  2  0  0  0  0
 17 18  2  0  0  0  0
 17 35  1  0  0  0  0
 18 19  1  0  0  0  0
 18 34  1  0  0  0  0
 19 20  2  0  0  0  0
 19 24  1  0  0  0  0
 20 21  1  0  0  0  0
 20 23  1  0  0  0  0
 21 22  1  0  0  0  0
 24 25  1  0  0  0  0
 24 29  1  0  0  0  0
 24 33  1  0  0  0  0
 25 26  1  0  0  0  0
 25 27  1  0  0  0  0
 25 28  1  0  0  0  0
 29 30  1  0  0  0  0
 29 31  1  0  0  0  0
 29 32  1  0  0  0  0
 43 44  1  0  0  0  0
 43 45  1  0  0  0  0
 43 46  1  0  0  0  0
M  END
> <Gold.Goldscore.Fitness>
67.7756

> <Gold.Goldscore.External.HBond>
1.4847

> <Gold.Protein.ActiveResidues>
 GLU87   ILE88   VAL90   ASN91   ALA92   ASP94   ASN95   ARG98   ILE118  ASN120 
 LYS123  GLY124  ILE125  ILE141  PHE142  THR147  SER148  SER149  ASN150  TYR151 
 GLY160  GLY161  ARG162  ASN163  GLY164  TYR165  GLY166  ALA167  LYS168  LEU169 
 THR181  THR215  ILE217  ILE317  GLN376  LYS378  ILE33   TYR34   MG903  

> <Gold.Goldscore.Internal.HBond>
0.0

> <Gold.Goldscore.Internal.Torsion.Weighted>
-4.6232

> <Gold.Protein.RotatedTorsions>
[ 8833 2752 2751 2750 ] final  -92.65 input   60.00 | X-H torsion
[ 6906  969  968  965 ] final -179.89 input   59.99 | X-H torsion
[ 6910  975  974  971 ] final  -12.12 input   60.00 | X-H torsion
[ 6897  962  961  958 ] final   71.11 input   60.00 | X-H torsion
[ 9084 2997 2996 2994 ] final  -38.60 input   60.00 | X-H torsion
[ 7406 1497 1496 1493 ] final  170.76 input   60.00 | X-H torsion
[ 7140 1220 1219 1216 ] final  115.27 input   60.00 | X-H torsion
[ 6926  995  994  992 ] final   25.13 input   60.0

> <Gold.Goldscore.Constraint.Score>
0.0

> <Gold.Id.Protein>
1ZXM|1ZXM_protein|mol2

> <Gold.Protein.RotatedAtoms>
   40.6750    3.3830   41.8637 H   0  0  0  0  0  0  0  0  0  0  0  0  # atno 6897 bound_to 962 
   42.5663   -2.5035   38.2571 H   0  0  0  0  0  0  0  0  0  0  0  0  # atno 6906 bound_to 969 
   38.8111   -4.3840   40.0676 H   0  0  0  0  0  0  0  0  0  0  0  0  # atno 6910 bound_to 975 
   45.8911    1.1244   38.6740 H   0  0  0  0  0  0  0  0  0  0  0  0  # atno 6926 bound_to 995 
   28.0475    0.1168   43.0607 H   0  0  0  0  0  0  0  0  0  0  0  0  # atno 7140 bound_to 1220
   28.2838   -0.9017   41.0

> <Gold.Version>
5.3.0

> <Gold.Goldscore.Internal.Correction>
-0.0166

> <Gold.Goldscore.Internal.Vdw>
-1.3472

> <Gold.Goldscore.Internal.Vdw.Weighted>
-1.3472

> <Gold.Goldscore.External.HBond.Weighted>
1.4847

> <Gold.Goldscore.External.Vdw.Weighted>
72.2447

> <Gold.Goldscore.Internal.HBond.Weighted>
0.0

> <Gold.Goldscore.Hbonds>
donor molecule, donor type, donor heavy atom, donor atom, acceptor molecule, acceptor atom, score
      L1  H     1    27       P1   757  0.74

> <Gold.Goldscore.External.Vdw>
52.5416

> <Gold.Goldscore.Internal.Torsion>
-4.6232

> <Gold.Goldscore.Internal.Correction.Weighted>
-0.0166

> <Gold.Version>
5.3.0

> <Gold.Id.Protein>
1ZXM|1ZXM_protein|mol2

> <Gold.ASP.Fitness>
25.8973

> <Gold.ASP.ASP>
31.9380

> <Gold.ASP.Map>
-159.6900

> <Gold.ASP.DEClash>
1.6051

> <Gold.ASP.DEInternal>
4.4356

> <Gold.ASP.Internal.Correction>
0.1091

> <Gold.Protein.RotatedTorsions>
[ 8924 2752 2751 2750 ] final -127.07 input   60.00 | X-H torsion
[ 6908  969  968  965 ] final  -35.24 input   59.99 | X-H torsion
[ 6912  975  974  971 ] final  -59.21 input   60.00 | X-H torsion
[ 6899  962  961  958 ] final  103.07 input   60.00 | X-H torsion
[ 9165 2997 2996 2994 ] final   16.75 input   60.00 | X-H torsion
[ 7410 1497 1496 1493 ] final -170.63 input   60.00 | X-H torsion
[ 7137 1220 1219 1216 ] final   40.59 input   60.00 | X-H torsion
[ 6928  995  994  992 ] final -121.42 input   60.00 | X-H torsion

> <Gold.Protein.ActiveResidues>
 GLU87   ILE88   VAL90   ASN91   ALA92   ASP94   ASN95   ARG98   ILE118  ASN120 
 LYS123  GLY124  ILE125  ILE141  PHE142  THR147  SER148  SER149  ASN150  TYR151 
 GLY160  GLY161  ARG162  ASN163  GLY164  TYR165  GLY166  ALA167  LYS168  LEU169 
 THR181  THR215  ILE217  ILE317  GLN376  LYS378  ILE33   TYR34   MG903  

> <Gold.Protein.RotatedAtoms>
   40.3990    3.5488   42.2664 H   0  0  0  0  0  0  0  0  0  0  0  0  # atno 6899 bound_to 962 
   41.6565   -3.1032   39.6697 H   0  0  0  0  0  0  0  0  0  0  0  0  # atno 6908 bound_to 969 
   38.3196   -3.9007   40.3580 H   0  0  0  0  0  0  0  0  0  0  0  0  # atno 6912 bound_to 975 
   46.7123    1.5610   40.2072 H   0  0  0  0  0  0  0  0  0  0  0  0  # atno 6928 bound_to 995 
   26.9449    0.0358   43.3202 H   0  0  0  0  0  0  0  0  0  0  0  0  # atno 7137 bound_to 1220
   28.4117   -0.6569   41.1826 H   0  0  0  0  0  0  0  0  0  0  0  0  # atno 7410 bound_to 1497
   43.5087   -0.7410   30.9683 H   0  0  0  0  0  0  0  0  0  0  0  0  # atno 8924 bound_to 2752
   44.0650   -0.6114   29.4123 H   0  0  0  0  0  0  0  0  0  0  0  0  # atno 8925 bound_to 2752
   43.4407    0.7169   30.1827 H   0  0  0  0  0  0  0  0  0  0  0  0  # atno 8926 bound_to 2752
   34.5698   -4.3310   43.7941 H   0  0  0  0  0  0  0  0  0  0  0  0  # atno 9165 bound_to 2997
   42.7457   -2.7565   38.5115 LP  0  0  0  0  0  0  0  0  0  0  0  0  # atno 11896 bound_to 969 
   41.2520   -2.0990   38.4548 LP  0  0  0  0  0  0  0  0  0  0  0  0  # atno 11897 bound_to 969 
   37.2462   -5.0115   40.8698 LP  0  0  0  0  0  0  0  0  0  0  0  0  # atno 11898 bound_to 975 
   38.6132   -5.4820   40.1105 LP  0  0  0  0  0  0  0  0  0  0  0  0  # atno 11899 bound_to 975 
   41.7913    3.9791   41.5421 LP  0  0  0  0  0  0  0  0  0  0  0  0  # atno 11904 bound_to 962 
   41.2562    4.8052   42.8451 LP  0  0  0  0  0  0  0  0  0  0  0  0  # atno 11905 bound_to 962 
   33.7885   -3.7502   45.0980 LP  0  0  0  0  0  0  0  0  0  0  0  0  # atno 11912 bound_to 2997
   34.4259   -5.2534   45.1270 LP  0  0  0  0  0  0  0  0  0  0  0  0  # atno 11913 bound_to 2997
   26.8871   -1.2085   41.3206 LP  0  0  0  0  0  0  0  0  0  0  0  0  # atno 11922 bound_to 1497
   27.3391    0.1539   42.0991 LP  0  0  0  0  0  0  0  0  0  0  0  0  # atno 11923 bound_to 1497
   27.5260   -0.1942   44.8226 LP  0  0  0  0  0  0  0  0  0  0  0  0  # atno 11930 bound_to 1220
   28.5520    0.0471   43.5753 LP  0  0  0  0  0  0  0  0  0  0  0  0  # atno 11931 bound_to 1220

$$$$
****|SGG-4|sdf|1|dock41
  -GOLD-   9 72311473D 1   1.00000     0.00000

 46 48  0  0  0  0  0  0  0  0  1 V2000
   30.1271    0.1098   36.3945 S   0  0  0  0  0  0  0  0  0  0  0  0
   29.6861    1.7434   36.0968 C   0  0  0  0  0  0  0  0  0  0  0  0
   30.5209    2.6486   36.5589 N   0  0  0  0  0  0  0  0  0  0  0  0
   31.5785    2.0246   37.1896 C   0  0  0  0  0  0  0  0  0  0  0  0
   31.5449    0.6430   37.2027 C   0  0  0  0  0  0  0  0  0  0  0  0
   32.4958   -0.3323   37.8180 C   0  0  0  0  0  0  0  0  0  0  0  0
   32.1210   -0.5909   39.5823 S   0  0  0  0  0  0  0  0  0  0  0  0
   32.9710   -2.1104   39.8252 C   0  0  0  0  0  0  0  0  0  0  0  0
   33.0719   -2.6264   41.1083 N   0  0  0  0  0  0  0  0  0  0  0  0
   33.7502   -3.8195   41.3247 C   0  0  0  0  0  0  0  0  0  0  0  0
   33.8470   -4.3526   42.6120 O   0  0  0  0  0  0  0  0  0  0  0  0
   34.3181   -4.4496   40.2918 N   0  0  0  0  0  0  0  0  0  0  0  0
   34.1842   -3.8841   39.0860 C   0  0  0  0  0  0  0  0  0  0  0  0
   34.9985   -4.6971   37.7373 S   0  0  0  0  0  0  0  0  0  0  0  0
   36.6877   -4.2539   38.2180 C   0  0  0  0  0  0  0  0  0  0  0  0
   36.8512   -2.7711   38.4355 C   0  0  0  0  0  0  0  0  0  0  0  0
   36.3092   -1.8481   37.5334 C   0  0  0  0  0  0  0  0  0  0  0  0
   36.4383   -0.4737   37.7571 C   0  0  0  0  0  0  0  0  0  0  0  0
   37.1266    0.0100   38.8786 C   0  0  0  0  0  0  0  0  0  0  0  0
   37.6779   -0.9181   39.7735 C   0  0  0  0  0  0  0  0  0  0  0  0
   37.5449   -2.2914   39.5539 C   0  0  0  0  0  0  0  0  0  0  0  0
   37.9852   -2.9867   40.2660 H   0  0  0  0  0  0  0  0  0  0  0  0
   38.2146   -0.5784   40.6569 H   0  0  0  0  0  0  0  0  0  0  0  0
   37.2574    1.4949   39.1699 C   0  0  0  0  0  0  0  0  0  0  0  0
   35.8754    2.1451   39.2632 C   0  0  0  0  0  0  0  0  0  0  0  0
   35.3344    2.0845   38.3124 H   0  0  0  0  0  0  0  0  0  0  0  0
   35.2619    1.6542   40.0271 H   0  0  0  0  0  0  0  0  0  0  0  0
   35.9628    3.2026   39.5344 H   0  0  0  0  0  0  0  0  0  0  0  0
   38.1365    2.2328   38.1565 C   0  0  0  0  0  0  0  0  0  0  0  0
   37.6514    2.3258   37.1790 H   0  0  0  0  0  0  0  0  0  0  0  0
   39.0903    1.7137   38.0127 H   0  0  0  0  0  0  0  0  0  0  0  0
   38.3562    3.2465   38.5094 H   0  0  0  0  0  0  0  0  0  0  0  0
   37.7457    1.6115   40.1470 H   0  0  0  0  0  0  0  0  0  0  0  0
   35.9862    0.2130   37.0457 H   0  0  0  0  0  0  0  0  0  0  0  0
   35.7734   -2.1913   36.6510 H   0  0  0  0  0  0  0  0  0  0  0  0
   37.3970   -4.5747   37.4452 H   0  0  0  0  0  0  0  0  0  0  0  0
   36.9543   -4.7979   39.1320 H   0  0  0  0  0  0  0  0  0  0  0  0
   33.5385   -2.7470   38.8007 N   0  0  0  0  0  0  0  0  0  0  0  0
   32.6489   -2.1286   41.8790 H   0  0  0  0  0  0  0  0  0  0  0  0
   32.4113   -1.2900   37.2909 H   0  0  0  0  0  0  0  0  0  0  0  0
   33.5299    0.0153   37.7202 H   0  0  0  0  0  0  0  0  0  0  0  0
   32.3582    2.6355   37.6294 H   0  0  0  0  0  0  0  0  0  0  0  0
   28.4234    2.0567   35.3750 C   0  0  0  0  0  0  0  0  0  0  0  0
   28.4041    1.5514   34.4039 H   0  0  0  0  0  0  0  0  0  0  0  0
   28.3449    3.1342   35.1995 H   0  0  0  0  0  0  0  0  0  0  0  0
   27.5461    1.7285   35.9415 H   0  0  0  0  0  0  0  0  0  0  0  0
  1  2  1  0  0  0  0
  1  5  1  0  0  0  0
  2  3  2  0  0  0  0
  2 43  1  0  0  0  0
  3  4  1  0  0  0  0
  4  5  2  0  0  0  0
  4 42  1  0  0  0  0
  5  6  1  0  0  0  0
  6  7  1  0  0  0  0
  6 40  1  0  0  0  0
  6 41  1  0  0  0  0
  7  8  1  0  0  0  0
  8  9  1  0  0  0  0
  8 38  2  0  0  0  0
  9 10  1  0  0  0  0
  9 39  1  0  0  0  0
 10 11  2  0  0  0  0
 10 12  1  0  0  0  0
 12 13  2  0  0  0  0
 13 14  1  0  0  0  0
 13 38  1  0  0  0  0
 14 15  1  0  0  0  0
 15 16  1  0  0  0  0
 15 36  1  0  0  0  0
 15 37  1  0  0  0  0
 16 17  1  0  0  0  0
 16 21  2  0  0  0  0
 17 18  2  0  0  0  0
 17 35  1  0  0  0  0
 18 19  1  0  0  0  0
 18 34  1  0  0  0  0
 19 20  2  0  0  0  0
 19 24  1  0  0  0  0
 20 21  1  0  0  0  0
 20 23  1  0  0  0  0
 21 22  1  0  0  0  0
 24 25  1  0  0  0  0
 24 29  1  0  0  0  0
 24 33  1  0  0  0  0
 25 26  1  0  0  0  0
 25 27  1  0  0  0  0
 25 28  1  0  0  0  0
 29 30  1  0  0  0  0
 29 31  1  0  0  0  0
 29 32  1  0  0  0  0
 43 44  1  0  0  0  0
 43 45  1  0  0  0  0
 43 46  1  0  0  0  0
M  END
> <Gold.Goldscore.Fitness>
67.7756

> <Gold.Goldscore.External.HBond>
1.4847

> <Gold.Protein.ActiveResidues>
 GLU87   ILE88   VAL90   ASN91   ALA92   ASP94   ASN95   ARG98   ILE118  ASN120 
 LYS123  GLY124  ILE125  ILE141  PHE142  THR147  SER148  SER149  ASN150  TYR151 
 GLY160  GLY161  ARG162  ASN163  GLY164  TYR165  GLY166  ALA167  LYS168  LEU169 
 THR181  THR215  ILE217  ILE317  GLN376  LYS378  ILE33   TYR34   MG903  

> <Gold.Goldscore.Internal.HBond>
0.0

> <Gold.Goldscore.Internal.Torsion.Weighted>
-4.6232

> <Gold.Protein.RotatedTorsions>
[ 8833 2752 2751 2750 ] final  -92.65 input   60.00 | X-H torsion
[ 6906  969  968  965 ] final -179.89 input   59.99 | X-H torsion
[ 6910  975  974  971 ] final  -12.12 input   60.00 | X-H torsion
[ 6897  962  961  958 ] final   71.11 input   60.00 | X-H torsion
[ 9084 2997 2996 2994 ] final  -38.60 input   60.00 | X-H torsion
[ 7406 1497 1496 1493 ] final  170.76 input   60.00 | X-H torsion
[ 7140 1220 1219 1216 ] final  115.27 input   60.00 | X-H torsion
[ 6926  995  994  992 ] final   25.13 input   60.0

> <Gold.Goldscore.Constraint.Score>
0.0

> <Gold.Id.Protein>
1ZXM|1ZXM_protein|mol2

> <Gold.Protein.RotatedAtoms>
   40.6750    3.3830   41.8637 H   0  0  0  0  0  0  0  0  0  0  0  0  # atno 6897 bound_to 962 
   42.5663   -2.5035   38.2571 H   0  0  0  0  0  0  0  0  0  0  0  0  # atno 6906 bound_to 969 
   38.8111   -4.3840   40.0676 H   0  0  0  0  0  0  0  0  0  0  0  0  # atno 6910 bound_to 975 
   45.8911    1.1244   38.6740 H   0  0  0  0  0  0  0  0  0  0  0  0  # atno 6926 bound_to 995 
   28.0475    0.1168   43.0607 H   0  0  0  0  0  0  0  0  0  0  0  0  # atno 7140 bound_to 1220
   28.2838   -0.9017   41.0

> <Gold.Version>
5.3.0

> <Gold.Goldscore.Internal.Correction>
-0.0166

> <Gold.Goldscore.Internal.Vdw>
-1.3472

> <Gold.Goldscore.Internal.Vdw.Weighted>
-1.3472

> <Gold.Goldscore.External.HBond.Weighted>
1.4847

> <Gold.Goldscore.External.Vdw.Weighted>
72.2447

> <Gold.Goldscore.Internal.HBond.Weighted>
0.0

> <Gold.Goldscore.Hbonds>
donor molecule, donor type, donor heavy atom, donor atom, acceptor molecule, acceptor atom, score
      L1  H     1    27       P1   757  0.74

> <Gold.Goldscore.External.Vdw>
52.5416

> <Gold.Goldscore.Internal.Torsion>
-4.6232

> <Gold.Goldscore.Internal.Correction.Weighted>
-0.0166

> <Gold.Version>
5.3.0

> <Gold.Id.Protein>
1ZXM|1ZXM_protein|mol2

> <Gold.ASP.Fitness>
25.8795

> <Gold.ASP.ASP>
30.3640

> <Gold.ASP.Map>
-151.8200

> <Gold.ASP.DEClash>
3.7162

> <Gold.ASP.DEInternal>
0.7683

> <Gold.ASP.Internal.Correction>
0.1091

> <Gold.Protein.RotatedTorsions>
[ 8924 2752 2751 2750 ] final  110.97 input   60.00 | X-H torsion
[ 6908  969  968  965 ] final  -19.46 input   59.99 | X-H torsion
[ 6912  975  974  971 ] final  -20.70 input   60.00 | X-H torsion
[ 6899  962  961  958 ] final   51.77 input   60.00 | X-H torsion
[ 9165 2997 2996 2994 ] final  164.11 input   60.00 | X-H torsion
[ 7410 1497 1496 1493 ] final -110.04 input   60.00 | X-H torsion
[ 7137 1220 1219 1216 ] final   18.91 input   60.00 | X-H torsion
[ 6928  995  994  992 ] final  115.24 input   60.00 | X-H torsion

> <Gold.Protein.ActiveResidues>
 GLU87   ILE88   VAL90   ASN91   ALA92   ASP94   ASN95   ARG98   ILE118  ASN120 
 LYS123  GLY124  ILE125  ILE141  PHE142  THR147  SER148  SER149  ASN150  TYR151 
 GLY160  GLY161  ARG162  ASN163  GLY164  TYR165  GLY166  ALA167  LYS168  LEU169 
 THR181  THR215  ILE217  ILE317  GLN376  LYS378  ILE33   TYR34   MG903  

> <Gold.Protein.RotatedAtoms>
   40.9191    3.3891   41.6656 H   0  0  0  0  0  0  0  0  0  0  0  0  # atno 6899 bound_to 962 
   41.4322   -2.9837   39.6311 H   0  0  0  0  0  0  0  0  0  0  0  0  # atno 6908 bound_to 969 
   38.7514   -4.2635   40.1063 H   0  0  0  0  0  0  0  0  0  0  0  0  # atno 6912 bound_to 975 
   45.1426    1.3891   39.7353 H   0  0  0  0  0  0  0  0  0  0  0  0  # atno 6928 bound_to 995 
   26.7791   -0.0204   43.6257 H   0  0  0  0  0  0  0  0  0  0  0  0  # atno 7137 bound_to 1220
   28.1978    0.0678   41.7491 H   0  0  0  0  0  0  0  0  0  0  0  0  # atno 7410 bound_to 1497
   43.4519    0.7189   30.1520 H   0  0  0  0  0  0  0  0  0  0  0  0  # atno 8924 bound_to 2752
   43.4964   -0.7145   30.9830 H   0  0  0  0  0  0  0  0  0  0  0  0  # atno 8925 bound_to 2752
   44.0661   -0.6398   29.4283 H   0  0  0  0  0  0  0  0  0  0  0  0  # atno 8926 bound_to 2752
   34.2026   -5.0040   45.4193 H   0  0  0  0  0  0  0  0  0  0  0  0  # atno 9165 bound_to 2997
   42.7764   -2.9111   38.7168 LP  0  0  0  0  0  0  0  0  0  0  0  0  # atno 11896 bound_to 969 
   41.4472   -2.0647   38.2883 LP  0  0  0  0  0  0  0  0  0  0  0  0  # atno 11897 bound_to 969 
   37.3179   -4.3937   40.8654 LP  0  0  0  0  0  0  0  0  0  0  0  0  # atno 11898 bound_to 975 
   38.1066   -5.7344   40.3683 LP  0  0  0  0  0  0  0  0  0  0  0  0  # atno 11899 bound_to 975 
   41.9388    4.5955   42.0565 LP  0  0  0  0  0  0  0  0  0  0  0  0  # atno 11904 bound_to 962 
   40.5849    4.3497   42.9358 LP  0  0  0  0  0  0  0  0  0  0  0  0  # atno 11905 bound_to 962 
   34.7045   -4.7426   43.8936 LP  0  0  0  0  0  0  0  0  0  0  0  0  # atno 11912 bound_to 2997
   33.8796   -3.5832   44.6947 LP  0  0  0  0  0  0  0  0  0  0  0  0  # atno 11913 bound_to 2997
   27.7663   -1.2929   40.9679 LP  0  0  0  0  0  0  0  0  0  0  0  0  # atno 11922 bound_to 1497
   26.6754   -0.4915   41.8812 LP  0  0  0  0  0  0  0  0  0  0  0  0  # atno 11923 bound_to 1497
   27.8803   -0.1804   44.8130 LP  0  0  0  0  0  0  0  0  0  0  0  0  # atno 11930 bound_to 1220
   28.3647    0.0898   43.2771 LP  0  0  0  0  0  0  0  0  0  0  0  0  # atno 11931 bound_to 1220

$$$$
****|SGG-4|sdf|1|dock96
  -GOLD-   9 72311523D 1   1.00000     0.00000

 46 48  0  0  0  0  0  0  0  0  1 V2000
   39.5042    1.2806   35.4804 S   0  0  0  0  0  0  0  0  0  0  0  0
   40.9033    0.4713   34.8981 C   0  0  0  0  0  0  0  0  0  0  0  0
   41.2849   -0.5749   35.5980 N   0  0  0  0  0  0  0  0  0  0  0  0
   40.4261   -0.7580   36.6632 C   0  0  0  0  0  0  0  0  0  0  0  0
   39.3904    0.1509   36.7683 C   0  0  0  0  0  0  0  0  0  0  0  0
   38.3166    0.2640   37.8018 C   0  0  0  0  0  0  0  0  0  0  0  0
   38.7564   -0.6597   39.3096 S   0  0  0  0  0  0  0  0  0  0  0  0
   37.4348   -1.8189   39.3185 C   0  0  0  0  0  0  0  0  0  0  0  0
   37.1980   -2.5769   38.1818 N   0  0  0  0  0  0  0  0  0  0  0  0
   36.1508   -3.4899   38.1627 C   0  0  0  0  0  0  0  0  0  0  0  0
   35.9119   -4.2658   37.0262 O   0  0  0  0  0  0  0  0  0  0  0  0
   35.3670   -3.6138   39.2382 N   0  0  0  0  0  0  0  0  0  0  0  0
   35.6544   -2.8413   40.2928 C   0  0  0  0  0  0  0  0  0  0  0  0
   34.5662   -2.9701   41.6864 S   0  0  0  0  0  0  0  0  0  0  0  0
   33.0636   -3.3342   40.7428 C   0  0  0  0  0  0  0  0  0  0  0  0
   32.5270   -2.1196   40.0289 C   0  0  0  0  0  0  0  0  0  0  0  0
   33.2036   -0.8954   40.0848 C   0  0  0  0  0  0  0  0  0  0  0  0
   32.7165    0.2196   39.3953 C   0  0  0  0  0  0  0  0  0  0  0  0
   31.5330    0.1413   38.6480 C   0  0  0  0  0  0  0  0  0  0  0  0
   30.8523   -1.0838   38.6042 C   0  0  0  0  0  0  0  0  0  0  0  0
   31.3407   -2.1998   39.2881 C   0  0  0  0  0  0  0  0  0  0  0  0
   30.7890   -3.1363   39.2360 H   0  0  0  0  0  0  0  0  0  0  0  0
   29.9332   -1.1821   38.0303 H   0  0  0  0  0  0  0  0  0  0  0  0
   30.9931    1.3226   37.8606 C   0  0  0  0  0  0  0  0  0  0  0  0
   29.9458    0.8558   36.8474 C   0  0  0  0  0  0  0  0  0  0  0  0
   30.3785    0.1837   36.0981 H   0  0  0  0  0  0  0  0  0  0  0  0
   29.1307    0.3185   37.3453 H   0  0  0  0  0  0  0  0  0  0  0  0
   29.5088    1.7109   36.3207 H   0  0  0  0  0  0  0  0  0  0  0  0
   32.0894    2.1386   37.1703 C   0  0  0  0  0  0  0  0  0  0  0  0
   32.5347    1.6015   36.3261 H   0  0  0  0  0  0  0  0  0  0  0  0
   32.8919    2.3907   37.8720 H   0  0  0  0  0  0  0  0  0  0  0  0
   31.6782    3.0762   36.7801 H   0  0  0  0  0  0  0  0  0  0  0  0
   30.4946    2.0045   38.5629 H   0  0  0  0  0  0  0  0  0  0  0  0
   33.2802    1.1479   39.4451 H   0  0  0  0  0  0  0  0  0  0  0  0
   34.1222   -0.8007   40.6598 H   0  0  0  0  0  0  0  0  0  0  0  0
   32.2833   -3.7217   41.4093 H   0  0  0  0  0  0  0  0  0  0  0  0
   33.2792   -4.1290   40.0188 H   0  0  0  0  0  0  0  0  0  0  0  0
   36.6493   -1.9510   40.3874 N   0  0  0  0  0  0  0  0  0  0  0  0
   37.7919   -2.4590   37.3730 H   0  0  0  0  0  0  0  0  0  0  0  0
   38.1812    1.3215   38.0577 H   0  0  0  0  0  0  0  0  0  0  0  0
   37.3629   -0.1138   37.4174 H   0  0  0  0  0  0  0  0  0  0  0  0
   40.6055   -1.5832   37.3425 H   0  0  0  0  0  0  0  0  0  0  0  0
   41.6080    0.9742   33.6881 C   0  0  0  0  0  0  0  0  0  0  0  0
   40.9154    1.0374   32.8425 H   0  0  0  0  0  0  0  0  0  0  0  0
   42.4200    0.2939   33.4126 H   0  0  0  0  0  0  0  0  0  0  0  0
   42.0269    1.9718   33.8540 H   0  0  0  0  0  0  0  0  0  0  0  0
  1  2  1  0  0  0  0
  1  5  1  0  0  0  0
  2  3  2  0  0  0  0
  2 43  1  0  0  0  0
  3  4  1  0  0  0  0
  4  5  2  0  0  0  0
  4 42  1  0  0  0  0
  5  6  1  0  0  0  0
  6  7  1  0  0  0  0
  6 40  1  0  0  0  0
  6 41  1  0  0  0  0
  7  8  1  0  0  0  0
  8  9  1  0  0  0  0
  8 38  2  0  0  0  0
  9 10  1  0  0  0  0
  9 39  1  0  0  0  0
 10 11  2  0  0  0  0
 10 12  1  0  0  0  0
 12 13  2  0  0  0  0
 13 14  1  0  0  0  0
 13 38  1  0  0  0  0
 14 15  1  0  0  0  0
 15 16  1  0  0  0  0
 15 36  1  0  0  0  0
 15 37  1  0  0  0  0
 16 17  1  0  0  0  0
 16 21  2  0  0  0  0
 17 18  2  0  0  0  0
 17 35  1  0  0  0  0
 18 19  1  0  0  0  0
 18 34  1  0  0  0  0
 19 20  2  0  0  0  0
 19 24  1  0  0  0  0
 20 21  1  0  0  0  0
 20 23  1  0  0  0  0
 21 22  1  0  0  0  0
 24 25  1  0  0  0  0
 24 29  1  0  0  0  0
 24 33  1  0  0  0  0
 25 26  1  0  0  0  0
 25 27  1  0  0  0  0
 25 28  1  0  0  0  0
 29 30  1  0  0  0  0
 29 31  1  0  0  0  0
 29 32  1  0  0  0  0
 43 44  1  0  0  0  0
 43 45  1  0  0  0  0
 43 46  1  0  0  0  0
M  END
> <Gold.Goldscore.Fitness>
67.7756

> <Gold.Goldscore.External.HBond>
1.4847

> <Gold.Protein.ActiveResidues>
 GLU87   ILE88   VAL90   ASN91   ALA92   ASP94   ASN95   ARG98   ILE118  ASN120 
 LYS123  GLY124  ILE125  ILE141  PHE142  THR147  SER148  SER149  ASN150  TYR151 
 GLY160  GLY161  ARG162  ASN163  GLY164  TYR165  GLY166  ALA167  LYS168  LEU169 
 THR181  THR215  ILE217  ILE317  GLN376  LYS378  ILE33   TYR34   MG903  

> <Gold.Goldscore.Internal.HBond>
0.0

> <Gold.Goldscore.Internal.Torsion.Weighted>
-4.6232

> <Gold.Protein.RotatedTorsions>
[ 8833 2752 2751 2750 ] final  -92.65 input   60.00 | X-H torsion
[ 6906  969  968  965 ] final -179.89 input   59.99 | X-H torsion
[ 6910  975  974  971 ] final  -12.12 input   60.00 | X-H torsion
[ 6897  962  961  958 ] final   71.11 input   60.00 | X-H torsion
[ 9084 2997 2996 2994 ] final  -38.60 input   60.00 | X-H torsion
[ 7406 1497 1496 1493 ] final  170.76 input   60.00 | X-H torsion
[ 7140 1220 1219 1216 ] final  115.27 input   60.00 | X-H torsion
[ 6926  995  994  992 ] final   25.13 input   60.0

> <Gold.Goldscore.Constraint.Score>
0.0

> <Gold.Id.Protein>
1ZXM|1ZXM_protein|mol2

> <Gold.Protein.RotatedAtoms>
   40.6750    3.3830   41.8637 H   0  0  0  0  0  0  0  0  0  0  0  0  # atno 6897 bound_to 962 
   42.5663   -2.5035   38.2571 H   0  0  0  0  0  0  0  0  0  0  0  0  # atno 6906 bound_to 969 
   38.8111   -4.3840   40.0676 H   0  0  0  0  0  0  0  0  0  0  0  0  # atno 6910 bound_to 975 
   45.8911    1.1244   38.6740 H   0  0  0  0  0  0  0  0  0  0  0  0  # atno 6926 bound_to 995 
   28.0475    0.1168   43.0607 H   0  0  0  0  0  0  0  0  0  0  0  0  # atno 7140 bound_to 1220
   28.2838   -0.9017   41.0

> <Gold.Version>
5.3.0

> <Gold.Goldscore.Internal.Correction>
-0.0166

> <Gold.Goldscore.Internal.Vdw>
-1.3472

> <Gold.Goldscore.Internal.Vdw.Weighted>
-1.3472

> <Gold.Goldscore.External.HBond.Weighted>
1.4847

> <Gold.Goldscore.External.Vdw.Weighted>
72.2447

> <Gold.Goldscore.Internal.HBond.Weighted>
0.0

> <Gold.Goldscore.Hbonds>
donor molecule, donor type, donor heavy atom, donor atom, acceptor molecule, acceptor atom, score
      L1  H     1    27       P1   757  0.74

> <Gold.Goldscore.External.Vdw>
52.5416

> <Gold.Goldscore.Internal.Torsion>
-4.6232

> <Gold.Goldscore.Internal.Correction.Weighted>
-0.0166

> <Gold.Version>
5.3.0

> <Gold.Id.Protein>
1ZXM|1ZXM_protein|mol2

> <Gold.ASP.Fitness>
25.8266

> <Gold.ASP.ASP>
29.7920

> <Gold.ASP.Map>
-148.9600

> <Gold.ASP.DEClash>
2.5101

> <Gold.ASP.DEInternal>
1.4553

> <Gold.ASP.Internal.Correction>
0.1072

> <Gold.Protein.RotatedTorsions>
[ 8924 2752 2751 2750 ] final  152.57 input   60.00 | X-H torsion
[ 6908  969  968  965 ] final  -39.73 input   59.99 | X-H torsion
[ 6912  975  974  971 ] final  -12.05 input   60.00 | X-H torsion
[ 6899  962  961  958 ] final   27.39 input   60.00 | X-H torsion
[ 9165 2997 2996 2994 ] final  113.15 input   60.00 | X-H torsion
[ 7410 1497 1496 1493 ] final -101.72 input   60.00 | X-H torsion
[ 7137 1220 1219 1216 ] final  177.35 input   60.00 | X-H torsion
[ 6928  995  994  992 ] final  173.68 input   60.00 | X-H torsion

> <Gold.Protein.ActiveResidues>
 GLU87   ILE88   VAL90   ASN91   ALA92   ASP94   ASN95   ARG98   ILE118  ASN120 
 LYS123  GLY124  ILE125  ILE141  PHE142  THR147  SER148  SER149  ASN150  TYR151 
 GLY160  GLY161  ARG162  ASN163  GLY164  TYR165  GLY166  ALA167  LYS168  LEU169 
 THR181  THR215  ILE217  ILE317  GLN376  LYS378  ILE33   TYR34   MG903  

> <Gold.Protein.RotatedAtoms>
   41.2599    3.5114   41.5068 H   0  0  0  0  0  0  0  0  0  0  0  0  # atno 6899 bound_to 962 
   41.7243   -3.1314   39.6698 H   0  0  0  0  0  0  0  0  0  0  0  0  # atno 6908 bound_to 969 
   38.8116   -4.3851   40.0673 H   0  0  0  0  0  0  0  0  0  0  0  0  # atno 6912 bound_to 975 
   45.7284    1.5872   40.4084 H   0  0  0  0  0  0  0  0  0  0  0  0  # atno 6928 bound_to 995 
   28.6055    0.0075   43.8409 H   0  0  0  0  0  0  0  0  0  0  0  0  # atno 7137 bound_to 1220
   28.1004    0.1275   41.8226 H   0  0  0  0  0  0  0  0  0  0  0  0  # atno 7410 bound_to 1497
   43.2889    0.4556   30.7570 H   0  0  0  0  0  0  0  0  0  0  0  0  # atno 8924 bound_to 2752
   43.7760   -1.1086   30.5051 H   0  0  0  0  0  0  0  0  0  0  0  0  # atno 8925 bound_to 2752
   43.9495    0.0176   29.3013 H   0  0  0  0  0  0  0  0  0  0  0  0  # atno 8926 bound_to 2752
   34.5925   -5.3130   44.7858 H   0  0  0  0  0  0  0  0  0  0  0  0  # atno 9165 bound_to 2997
   42.7249   -2.7106   38.4575 LP  0  0  0  0  0  0  0  0  0  0  0  0  # atno 11896 bound_to 969 
   41.2046   -2.1166   38.5086 LP  0  0  0  0  0  0  0  0  0  0  0  0  # atno 11897 bound_to 969 
   37.3827   -4.2702   40.8375 LP  0  0  0  0  0  0  0  0  0  0  0  0  # atno 11898 bound_to 975 
   37.9813   -5.7354   40.4355 LP  0  0  0  0  0  0  0  0  0  0  0  0  # atno 11899 bound_to 975 
   41.7892    4.7820   42.3748 LP  0  0  0  0  0  0  0  0  0  0  0  0  # atno 11904 bound_to 962 
   40.3913    4.0400   42.7773 LP  0  0  0  0  0  0  0  0  0  0  0  0  # atno 11905 bound_to 962 
   34.3968   -3.9932   43.8543 LP  0  0  0  0  0  0  0  0  0  0  0  0  # atno 11912 bound_to 2997
   33.7947   -4.0215   45.3720 LP  0  0  0  0  0  0  0  0  0  0  0  0  # atno 11913 bound_to 2997
   27.8917   -1.2383   40.9631 LP  0  0  0  0  0  0  0  0  0  0  0  0  # atno 11922 bound_to 1497
   26.6481   -0.6063   41.8120 LP  0  0  0  0  0  0  0  0  0  0  0  0  # atno 11923 bound_to 1497
   27.1417    0.0712   43.1330 LP  0  0  0  0  0  0  0  0  0  0  0  0  # atno 11930 bound_to 1220
   27.2638   -0.1897   44.7404 LP  0  0  0  0  0  0  0  0  0  0  0  0  # atno 11931 bound_to 1220

$$$$
****|SGG-4|sdf|1|dock74
  -GOLD-   9 72311503D 1   1.00000     0.00000

 46 48  0  0  0  0  0  0  0  0  1 V2000
   37.4386   -0.0514   37.5639 S   0  0  0  0  0  0  0  0  0  0  0  0
   37.5194    1.4952   38.3076 C   0  0  0  0  0  0  0  0  0  0  0  0
   36.3649    2.0103   38.6704 N   0  0  0  0  0  0  0  0  0  0  0  0
   35.3457    1.1378   38.3455 C   0  0  0  0  0  0  0  0  0  0  0  0
   35.7304   -0.0419   37.7371 C   0  0  0  0  0  0  0  0  0  0  0  0
   34.8969   -1.1748   37.2311 C   0  0  0  0  0  0  0  0  0  0  0  0
   35.9327   -2.6103   36.7993 S   0  0  0  0  0  0  0  0  0  0  0  0
   35.7026   -3.5652   38.2573 C   0  0  0  0  0  0  0  0  0  0  0  0
   36.1785   -4.8672   38.2901 N   0  0  0  0  0  0  0  0  0  0  0  0
   35.9963   -5.6438   39.4276 C   0  0  0  0  0  0  0  0  0  0  0  0
   36.4823   -6.9524   39.4738 O   0  0  0  0  0  0  0  0  0  0  0  0
   35.3435   -5.1318   40.4756 N   0  0  0  0  0  0  0  0  0  0  0  0
   34.9073   -3.8714   40.3639 C   0  0  0  0  0  0  0  0  0  0  0  0
   33.9866   -3.2295   41.7364 S   0  0  0  0  0  0  0  0  0  0  0  0
   32.3495   -3.3812   40.9765 C   0  0  0  0  0  0  0  0  0  0  0  0
   32.0704   -2.2748   39.9912 C   0  0  0  0  0  0  0  0  0  0  0  0
   32.6216   -1.0000   40.1665 C   0  0  0  0  0  0  0  0  0  0  0  0
   32.3835    0.0134   39.2327 C   0  0  0  0  0  0  0  0  0  0  0  0
   31.5752   -0.2190   38.1110 C   0  0  0  0  0  0  0  0  0  0  0  0
   31.0157   -1.4940   37.9455 C   0  0  0  0  0  0  0  0  0  0  0  0
   31.2572   -2.5088   38.8748 C   0  0  0  0  0  0  0  0  0  0  0  0
   30.8075   -3.4875   38.7194 H   0  0  0  0  0  0  0  0  0  0  0  0
   30.3872   -1.7113   37.0843 H   0  0  0  0  0  0  0  0  0  0  0  0
   31.3224    0.8482   37.0602 C   0  0  0  0  0  0  0  0  0  0  0  0
   32.2410    2.0506   37.2879 C   0  0  0  0  0  0  0  0  0  0  0  0
   32.0394    2.5381   38.2481 H   0  0  0  0  0  0  0  0  0  0  0  0
   33.2937    1.7462   37.2838 H   0  0  0  0  0  0  0  0  0  0  0  0
   32.1062    2.7958   36.4967 H   0  0  0  0  0  0  0  0  0  0  0  0
   29.8581    1.2901   36.9900 C   0  0  0  0  0  0  0  0  0  0  0  0
   29.5629    1.8824   37.8626 H   0  0  0  0  0  0  0  0  0  0  0  0
   29.1895    0.4247   36.9267 H   0  0  0  0  0  0  0  0  0  0  0  0
   29.6893    1.9101   36.1026 H   0  0  0  0  0  0  0  0  0  0  0  0
   31.5664    0.4258   36.0760 H   0  0  0  0  0  0  0  0  0  0  0  0
   32.8454    0.9847   39.3912 H   0  0  0  0  0  0  0  0  0  0  0  0
   33.2494   -0.7863   41.0289 H   0  0  0  0  0  0  0  0  0  0  0  0
   31.5712   -3.3662   41.7494 H   0  0  0  0  0  0  0  0  0  0  0  0
   32.2753   -4.3546   40.4771 H   0  0  0  0  0  0  0  0  0  0  0  0
   35.0549   -3.0621   39.3082 N   0  0  0  0  0  0  0  0  0  0  0  0
   36.6566   -5.2422   37.4829 H   0  0  0  0  0  0  0  0  0  0  0  0
   34.1869   -1.4690   38.0130 H   0  0  0  0  0  0  0  0  0  0  0  0
   34.3206   -0.8727   36.3499 H   0  0  0  0  0  0  0  0  0  0  0  0
   34.3249    1.4174   38.5787 H   0  0  0  0  0  0  0  0  0  0  0  0
   38.8333    2.1697   38.4879 C   0  0  0  0  0  0  0  0  0  0  0  0
   39.5196    1.5242   39.0458 H   0  0  0  0  0  0  0  0  0  0  0  0
   38.7074    3.0997   39.0511 H   0  0  0  0  0  0  0  0  0  0  0  0
   39.2996    2.4025   37.5254 H   0  0  0  0  0  0  0  0  0  0  0  0
  1  2  1  0  0  0  0
  1  5  1  0  0  0  0
  2  3  2  0  0  0  0
  2 43  1  0  0  0  0
  3  4  1  0  0  0  0
  4  5  2  0  0  0  0
  4 42  1  0  0  0  0
  5  6  1  0  0  0  0
  6  7  1  0  0  0  0
  6 40  1  0  0  0  0
  6 41  1  0  0  0  0
  7  8  1  0  0  0  0
  8  9  1  0  0  0  0
  8 38  2  0  0  0  0
  9 10  1  0  0  0  0
  9 39  1  0  0  0  0
 10 11  2  0  0  0  0
 10 12  1  0  0  0  0
 12 13  2  0  0  0  0
 13 14  1  0  0  0  0
 13 38  1  0  0  0  0
 14 15  1  0  0  0  0
 15 16  1  0  0  0  0
 15 36  1  0  0  0  0
 15 37  1  0  0  0  0
 16 17  1  0  0  0  0
 16 21  2  0  0  0  0
 17 18  2  0  0  0  0
 17 35  1  0  0  0  0
 18 19  1  0  0  0  0
 18 34  1  0  0  0  0
 19 20  2  0  0  0  0
 19 24  1  0  0  0  0
 20 21  1  0  0  0  0
 20 23  1  0  0  0  0
 21 22  1  0  0  0  0
 24 25  1  0  0  0  0
 24 29  1  0  0  0  0
 24 33  1  0  0  0  0
 25 26  1  0  0  0  0
 25 27  1  0  0  0  0
 25 28  1  0  0  0  0
 29 30  1  0  0  0  0
 29 31  1  0  0  0  0
 29 32  1  0  0  0  0
 43 44  1  0  0  0  0
 43 45  1  0  0  0  0
 43 46  1  0  0  0  0
M  END
> <Gold.Goldscore.Fitness>
67.7756

> <Gold.Goldscore.External.HBond>
1.4847

> <Gold.Protein.ActiveResidues>
 GLU87   ILE88   VAL90   ASN91   ALA92   ASP94   ASN95   ARG98   ILE118  ASN120 
 LYS123  GLY124  ILE125  ILE141  PHE142  THR147  SER148  SER149  ASN150  TYR151 
 GLY160  GLY161  ARG162  ASN163  GLY164  TYR165  GLY166  ALA167  LYS168  LEU169 
 THR181  THR215  ILE217  ILE317  GLN376  LYS378  ILE33   TYR34   MG903  

> <Gold.Goldscore.Internal.HBond>
0.0

> <Gold.Goldscore.Internal.Torsion.Weighted>
-4.6232

> <Gold.Protein.RotatedTorsions>
[ 8833 2752 2751 2750 ] final  -92.65 input   60.00 | X-H torsion
[ 6906  969  968  965 ] final -179.89 input   59.99 | X-H torsion
[ 6910  975  974  971 ] final  -12.12 input   60.00 | X-H torsion
[ 6897  962  961  958 ] final   71.11 input   60.00 | X-H torsion
[ 9084 2997 2996 2994 ] final  -38.60 input   60.00 | X-H torsion
[ 7406 1497 1496 1493 ] final  170.76 input   60.00 | X-H torsion
[ 7140 1220 1219 1216 ] final  115.27 input   60.00 | X-H torsion
[ 6926  995  994  992 ] final   25.13 input   60.0

> <Gold.Goldscore.Constraint.Score>
0.0

> <Gold.Id.Protein>
1ZXM|1ZXM_protein|mol2

> <Gold.Protein.RotatedAtoms>
   40.6750    3.3830   41.8637 H   0  0  0  0  0  0  0  0  0  0  0  0  # atno 6897 bound_to 962 
   42.5663   -2.5035   38.2571 H   0  0  0  0  0  0  0  0  0  0  0  0  # atno 6906 bound_to 969 
   38.8111   -4.3840   40.0676 H   0  0  0  0  0  0  0  0  0  0  0  0  # atno 6910 bound_to 975 
   45.8911    1.1244   38.6740 H   0  0  0  0  0  0  0  0  0  0  0  0  # atno 6926 bound_to 995 
   28.0475    0.1168   43.0607 H   0  0  0  0  0  0  0  0  0  0  0  0  # atno 7140 bound_to 1220
   28.2838   -0.9017   41.0

> <Gold.Version>
5.3.0

> <Gold.Goldscore.Internal.Correction>
-0.0166

> <Gold.Goldscore.Internal.Vdw>
-1.3472

> <Gold.Goldscore.Internal.Vdw.Weighted>
-1.3472

> <Gold.Goldscore.External.HBond.Weighted>
1.4847

> <Gold.Goldscore.External.Vdw.Weighted>
72.2447

> <Gold.Goldscore.Internal.HBond.Weighted>
0.0

> <Gold.Goldscore.Hbonds>
donor molecule, donor type, donor heavy atom, donor atom, acceptor molecule, acceptor atom, score
      L1  H     1    27       P1   757  0.74

> <Gold.Goldscore.External.Vdw>
52.5416

> <Gold.Goldscore.Internal.Torsion>
-4.6232

> <Gold.Goldscore.Internal.Correction.Weighted>
-0.0166

> <Gold.Version>
5.3.0

> <Gold.Id.Protein>
1ZXM|1ZXM_protein|mol2

> <Gold.ASP.Fitness>
25.6910

> <Gold.ASP.ASP>
30.1220

> <Gold.ASP.Map>
-150.6100

> <Gold.ASP.DEClash>
3.2833

> <Gold.ASP.DEInternal>
1.1477

> <Gold.ASP.Internal.Correction>
0.1091

> <Gold.Protein.RotatedTorsions>
[ 8924 2752 2751 2750 ] final   99.25 input   60.00 | X-H torsion
[ 6908  969  968  965 ] final   16.90 input   59.99 | X-H torsion
[ 6912  975  974  971 ] final -135.49 input   60.00 | X-H torsion
[ 6899  962  961  958 ] final   83.98 input   60.00 | X-H torsion
[ 9165 2997 2996 2994 ] final  138.92 input   60.00 | X-H torsion
[ 7410 1497 1496 1493 ] final -171.95 input   60.00 | X-H torsion
[ 7137 1220 1219 1216 ] final  173.30 input   60.00 | X-H torsion
[ 6928  995  994  992 ] final   99.50 input   60.00 | X-H torsion

> <Gold.Protein.ActiveResidues>
 GLU87   ILE88   VAL90   ASN91   ALA92   ASP94   ASN95   ARG98   ILE118  ASN120 
 LYS123  GLY124  ILE125  ILE141  PHE142  THR147  SER148  SER149  ASN150  TYR151 
 GLY160  GLY161  ARG162  ASN163  GLY164  TYR165  GLY166  ALA167  LYS168  LEU169 
 THR181  THR215  ILE217  ILE317  GLN376  LYS378  ILE33   TYR34   MG903  

> <Gold.Protein.RotatedAtoms>
   40.5406    3.4247   42.0194 H   0  0  0  0  0  0  0  0  0  0  0  0  # atno 6899 bound_to 962 
   41.0686   -2.6317   39.3396 H   0  0  0  0  0  0  0  0  0  0  0  0  # atno 6908 bound_to 969 
   37.3610   -4.3215   40.8489 H   0  0  0  0  0  0  0  0  0  0  0  0  # atno 6912 bound_to 975 
   45.1301    1.3221   39.4880 H   0  0  0  0  0  0  0  0  0  0  0  0  # atno 6928 bound_to 995 
   28.5982    0.0179   43.7761 H   0  0  0  0  0  0  0  0  0  0  0  0  # atno 7137 bound_to 1220
   28.4055   -0.6750   41.1723 H   0  0  0  0  0  0  0  0  0  0  0  0  # atno 7410 bound_to 1497
   43.5233    0.7082   29.9703 H   0  0  0  0  0  0  0  0  0  0  0  0  # atno 8924 bound_to 2752
   43.4280   -0.5446   31.0513 H   0  0  0  0  0  0  0  0  0  0  0  0  # atno 8925 bound_to 2752
   44.0631   -0.7990   29.5417 H   0  0  0  0  0  0  0  0  0  0  0  0  # atno 8926 bound_to 2752
   34.4097   -5.2337   45.1527 H   0  0  0  0  0  0  0  0  0  0  0  0  # atno 9165 bound_to 2997
   42.5962   -3.1771   39.2095 LP  0  0  0  0  0  0  0  0  0  0  0  0  # atno 11896 bound_to 969 
   41.9936   -2.1533   38.0892 LP  0  0  0  0  0  0  0  0  0  0  0  0  # atno 11897 bound_to 969 
   38.0311   -5.7376   40.4087 LP  0  0  0  0  0  0  0  0  0  0  0  0  # atno 11898 bound_to 975 
   38.7937   -4.3321   40.0772 LP  0  0  0  0  0  0  0  0  0  0  0  0  # atno 11899 bound_to 975 
   41.9189    4.2240   41.6887 LP  0  0  0  0  0  0  0  0  0  0  0  0  # atno 11904 bound_to 962 
   40.9860    4.6852   42.9471 LP  0  0  0  0  0  0  0  0  0  0  0  0  # atno 11905 bound_to 962 
   34.5836   -4.3640   43.7884 LP  0  0  0  0  0  0  0  0  0  0  0  0  # atno 11912 bound_to 2997
   33.7920   -3.7305   45.0684 LP  0  0  0  0  0  0  0  0  0  0  0  0  # atno 11913 bound_to 2997
   26.8728   -1.1975   41.3330 LP  0  0  0  0  0  0  0  0  0  0  0  0  # atno 11922 bound_to 1497
   27.3597    0.1611   42.0971 LP  0  0  0  0  0  0  0  0  0  0  0  0  # atno 11923 bound_to 1497
   27.0881    0.0630   43.1716 LP  0  0  0  0  0  0  0  0  0  0  0  0  # atno 11930 bound_to 1220
   27.3248   -0.1920   44.7671 LP  0  0  0  0  0  0  0  0  0  0  0  0  # atno 11931 bound_to 1220

$$$$
****|SGG-4|sdf|1|dock24
  -GOLD-   9 72311453D 1   1.00000     0.00000

 46 48  0  0  0  0  0  0  0  0  1 V2000
   36.8603   -6.6710   38.1664 S   0  0  0  0  0  0  0  0  0  0  0  0
   36.0380   -6.8780   39.6606 C   0  0  0  0  0  0  0  0  0  0  0  0
   35.2586   -5.8817   40.0209 N   0  0  0  0  0  0  0  0  0  0  0  0
   35.3061   -4.8871   39.0648 C   0  0  0  0  0  0  0  0  0  0  0  0
   36.1221   -5.1325   37.9768 C   0  0  0  0  0  0  0  0  0  0  0  0
   36.4275   -4.2702   36.7948 C   0  0  0  0  0  0  0  0  0  0  0  0
   35.4592   -2.7273   36.8398 S   0  0  0  0  0  0  0  0  0  0  0  0
   36.7531   -1.6004   37.2220 C   0  0  0  0  0  0  0  0  0  0  0  0
   38.0685   -2.0246   37.1108 N   0  0  0  0  0  0  0  0  0  0  0  0
   39.1064   -1.1542   37.4200 C   0  0  0  0  0  0  0  0  0  0  0  0
   40.4347   -1.5692   37.2999 O   0  0  0  0  0  0  0  0  0  0  0  0
   38.8240    0.0820   37.8426 N   0  0  0  0  0  0  0  0  0  0  0  0
   37.5303    0.4136   37.9319 C   0  0  0  0  0  0  0  0  0  0  0  0
   37.1715    2.0336   38.5563 S   0  0  0  0  0  0  0  0  0  0  0  0
   36.2927    1.4919   40.0446 C   0  0  0  0  0  0  0  0  0  0  0  0
   35.0099    0.7688   39.7213 C   0  0  0  0  0  0  0  0  0  0  0  0
   34.6858   -0.4376   40.3531 C   0  0  0  0  0  0  0  0  0  0  0  0
   33.4802   -1.0877   40.0710 C   0  0  0  0  0  0  0  0  0  0  0  0
   32.5785   -0.5560   39.1384 C   0  0  0  0  0  0  0  0  0  0  0  0
   32.9125    0.6466   38.4994 C   0  0  0  0  0  0  0  0  0  0  0  0
   34.1141    1.2998   38.7843 C   0  0  0  0  0  0  0  0  0  0  0  0
   34.3456    2.2309   38.2708 H   0  0  0  0  0  0  0  0  0  0  0  0
   32.2344    1.0905   37.7735 H   0  0  0  0  0  0  0  0  0  0  0  0
   31.2461   -1.2178   38.8323 C   0  0  0  0  0  0  0  0  0  0  0  0
   30.4989   -0.4385   37.7480 C   0  0  0  0  0  0  0  0  0  0  0  0
   30.2478    0.5755   38.0783 H   0  0  0  0  0  0  0  0  0  0  0  0
   31.1051   -0.3519   36.8391 H   0  0  0  0  0  0  0  0  0  0  0  0
   29.5663   -0.9461   37.4797 H   0  0  0  0  0  0  0  0  0  0  0  0
   30.3659   -1.4024   40.0713 C   0  0  0  0  0  0  0  0  0  0  0  0
   29.9666   -0.4515   40.4400 H   0  0  0  0  0  0  0  0  0  0  0  0
   30.9281   -1.8717   40.8860 H   0  0  0  0  0  0  0  0  0  0  0  0
   29.5110   -2.0470   39.8389 H   0  0  0  0  0  0  0  0  0  0  0  0
   31.4448   -2.2245   38.4401 H   0  0  0  0  0  0  0  0  0  0  0  0
   33.2531   -2.0119   40.5967 H   0  0  0  0  0  0  0  0  0  0  0  0
   35.3664   -0.8787   41.0782 H   0  0  0  0  0  0  0  0  0  0  0  0
   36.0577    2.3548   40.6798 H   0  0  0  0  0  0  0  0  0  0  0  0
   36.9512    0.8413   40.6323 H   0  0  0  0  0  0  0  0  0  0  0  0
   36.4809   -0.3648   37.6419 N   0  0  0  0  0  0  0  0  0  0  0  0
   38.2626   -2.9674   36.8038 H   0  0  0  0  0  0  0  0  0  0  0  0
   37.4954   -4.0219   36.8039 H   0  0  0  0  0  0  0  0  0  0  0  0
   36.2131   -4.7988   35.8597 H   0  0  0  0  0  0  0  0  0  0  0  0
   34.7164   -3.9902   39.2147 H   0  0  0  0  0  0  0  0  0  0  0  0
   36.2446   -8.1144   40.4620 C   0  0  0  0  0  0  0  0  0  0  0  0
   36.0171   -9.0007   39.8608 H   0  0  0  0  0  0  0  0  0  0  0  0
   35.5827   -8.1156   41.3338 H   0  0  0  0  0  0  0  0  0  0  0  0
   37.2798   -8.1998   40.8071 H   0  0  0  0  0  0  0  0  0  0  0  0
  1  2  1  0  0  0  0
  1  5  1  0  0  0  0
  2  3  2  0  0  0  0
  2 43  1  0  0  0  0
  3  4  1  0  0  0  0
  4  5  2  0  0  0  0
  4 42  1  0  0  0  0
  5  6  1  0  0  0  0
  6  7  1  0  0  0  0
  6 40  1  0  0  0  0
  6 41  1  0  0  0  0
  7  8  1  0  0  0  0
  8  9  1  0  0  0  0
  8 38  2  0  0  0  0
  9 10  1  0  0  0  0
  9 39  1  0  0  0  0
 10 11  2  0  0  0  0
 10 12  1  0  0  0  0
 12 13  2  0  0  0  0
 13 14  1  0  0  0  0
 13 38  1  0  0  0  0
 14 15  1  0  0  0  0
 15 16  1  0  0  0  0
 15 36  1  0  0  0  0
 15 37  1  0  0  0  0
 16 17  1  0  0  0  0
 16 21  2  0  0  0  0
 17 18  2  0  0  0  0
 17 35  1  0  0  0  0
 18 19  1  0  0  0  0
 18 34  1  0  0  0  0
 19 20  2  0  0  0  0
 19 24  1  0  0  0  0
 20 21  1  0  0  0  0
 20 23  1  0  0  0  0
 21 22  1  0  0  0  0
 24 25  1  0  0  0  0
 24 29  1  0  0  0  0
 24 33  1  0  0  0  0
 25 26  1  0  0  0  0
 25 27  1  0  0  0  0
 25 28  1  0  0  0  0
 29 30  1  0  0  0  0
 29 31  1  0  0  0  0
 29 32  1  0  0  0  0
 43 44  1  0  0  0  0
 43 45  1  0  0  0  0
 43 46  1  0  0  0  0
M  END
> <Gold.Goldscore.Fitness>
67.7756

> <Gold.Goldscore.External.HBond>
1.4847

> <Gold.Protein.ActiveResidues>
 GLU87   ILE88   VAL90   ASN91   ALA92   ASP94   ASN95   ARG98   ILE118  ASN120 
 LYS123  GLY124  ILE125  ILE141  PHE142  THR147  SER148  SER149  ASN150  TYR151 
 GLY160  GLY161  ARG162  ASN163  GLY164  TYR165  GLY166  ALA167  LYS168  LEU169 
 THR181  THR215  ILE217  ILE317  GLN376  LYS378  ILE33   TYR34   MG903  

> <Gold.Goldscore.Internal.HBond>
0.0

> <Gold.Goldscore.Internal.Torsion.Weighted>
-4.6232

> <Gold.Protein.RotatedTorsions>
[ 8833 2752 2751 2750 ] final  -92.65 input   60.00 | X-H torsion
[ 6906  969  968  965 ] final -179.89 input   59.99 | X-H torsion
[ 6910  975  974  971 ] final  -12.12 input   60.00 | X-H torsion
[ 6897  962  961  958 ] final   71.11 input   60.00 | X-H torsion
[ 9084 2997 2996 2994 ] final  -38.60 input   60.00 | X-H torsion
[ 7406 1497 1496 1493 ] final  170.76 input   60.00 | X-H torsion
[ 7140 1220 1219 1216 ] final  115.27 input   60.00 | X-H torsion
[ 6926  995  994  992 ] final   25.13 input   60.0

> <Gold.Goldscore.Constraint.Score>
0.0

> <Gold.Id.Protein>
1ZXM|1ZXM_protein|mol2

> <Gold.Protein.RotatedAtoms>
   40.6750    3.3830   41.8637 H   0  0  0  0  0  0  0  0  0  0  0  0  # atno 6897 bound_to 962 
   42.5663   -2.5035   38.2571 H   0  0  0  0  0  0  0  0  0  0  0  0  # atno 6906 bound_to 969 
   38.8111   -4.3840   40.0676 H   0  0  0  0  0  0  0  0  0  0  0  0  # atno 6910 bound_to 975 
   45.8911    1.1244   38.6740 H   0  0  0  0  0  0  0  0  0  0  0  0  # atno 6926 bound_to 995 
   28.0475    0.1168   43.0607 H   0  0  0  0  0  0  0  0  0  0  0  0  # atno 7140 bound_to 1220
   28.2838   -0.9017   41.0

> <Gold.Version>
5.3.0

> <Gold.Goldscore.Internal.Correction>
-0.0166

> <Gold.Goldscore.Internal.Vdw>
-1.3472

> <Gold.Goldscore.Internal.Vdw.Weighted>
-1.3472

> <Gold.Goldscore.External.HBond.Weighted>
1.4847

> <Gold.Goldscore.External.Vdw.Weighted>
72.2447

> <Gold.Goldscore.Internal.HBond.Weighted>
0.0

> <Gold.Goldscore.Hbonds>
donor molecule, donor type, donor heavy atom, donor atom, acceptor molecule, acceptor atom, score
      L1  H     1    27       P1   757  0.74

> <Gold.Goldscore.External.Vdw>
52.5416

> <Gold.Goldscore.Internal.Torsion>
-4.6232

> <Gold.Goldscore.Internal.Correction.Weighted>
-0.0166

> <Gold.Version>
5.3.0

> <Gold.Id.Protein>
1ZXM|1ZXM_protein|mol2

> <Gold.ASP.Fitness>
25.6405

> <Gold.ASP.ASP>
30.6100

> <Gold.ASP.Map>
-153.0500

> <Gold.ASP.DEClash>
2.9820

> <Gold.ASP.DEInternal>
1.9876

> <Gold.ASP.Internal.Correction>
0.1091

> <Gold.Protein.RotatedTorsions>
[ 8924 2752 2751 2750 ] final  151.65 input   60.00 | X-H torsion
[ 6908  969  968  965 ] final   16.50 input   59.99 | X-H torsion
[ 6912  975  974  971 ] final -103.88 input   60.00 | X-H torsion
[ 6899  962  961  958 ] final  -52.02 input   60.00 | X-H torsion
[ 9165 2997 2996 2994 ] final  125.06 input   60.00 | X-H torsion
[ 7410 1497 1496 1493 ] final -130.81 input   60.00 | X-H torsion
[ 7137 1220 1219 1216 ] final -179.20 input   60.00 | X-H torsion
[ 6928  995  994  992 ] final   12.53 input   60.00 | X-H torsion

> <Gold.Protein.ActiveResidues>
 GLU87   ILE88   VAL90   ASN91   ALA92   ASP94   ASN95   ARG98   ILE118  ASN120 
 LYS123  GLY124  ILE125  ILE141  PHE142  THR147  SER148  SER149  ASN150  TYR151 
 GLY160  GLY161  ARG162  ASN163  GLY164  TYR165  GLY166  ALA167  LYS168  LEU169 
 THR181  THR215  ILE217  ILE317  GLN376  LYS378  ILE33   TYR34   MG903  

> <Gold.Protein.RotatedAtoms>
   41.9561    4.4171   41.8612 H   0  0  0  0  0  0  0  0  0  0  0  0  # atno 6899 bound_to 962 
   41.0710   -2.6357   39.3440 H   0  0  0  0  0  0  0  0  0  0  0  0  # atno 6908 bound_to 969 
   37.6940   -3.9696   40.6898 H   0  0  0  0  0  0  0  0  0  0  0  0  # atno 6912 bound_to 975 
   46.0959    1.1259   38.6579 H   0  0  0  0  0  0  0  0  0  0  0  0  # atno 6928 bound_to 995 
   28.6080   -0.0016   43.8966 H   0  0  0  0  0  0  0  0  0  0  0  0  # atno 7137 bound_to 1220
   28.3773   -0.1365   41.5494 H   0  0  0  0  0  0  0  0  0  0  0  0  # atno 7410 bound_to 1497
   43.2906    0.4659   30.7457 H   0  0  0  0  0  0  0  0  0  0  0  0  # atno 8924 bound_to 2752
   43.7699   -1.1044   30.5185 H   0  0  0  0  0  0  0  0  0  0  0  0  # atno 8925 bound_to 2752
   43.9539    0.0030   29.2991 H   0  0  0  0  0  0  0  0  0  0  0  0  # atno 8926 bound_to 2752
   34.5142   -5.2977   44.9629 H   0  0  0  0  0  0  0  0  0  0  0  0  # atno 9165 bound_to 2997
   42.5999   -3.1752   39.2045 LP  0  0  0  0  0  0  0  0  0  0  0  0  # atno 11896 bound_to 969 
   41.9875   -2.1511   38.0897 LP  0  0  0  0  0  0  0  0  0  0  0  0  # atno 11897 bound_to 969 
   37.6001   -5.5936   40.6478 LP  0  0  0  0  0  0  0  0  0  0  0  0  # atno 11898 bound_to 975 
   38.8894   -4.8304   39.9984 LP  0  0  0  0  0  0  0  0  0  0  0  0  # atno 11899 bound_to 975 
   40.7720    4.5352   42.9711 LP  0  0  0  0  0  0  0  0  0  0  0  0  # atno 11904 bound_to 962 
   40.7072    3.3746   41.8242 LP  0  0  0  0  0  0  0  0  0  0  0  0  # atno 11905 bound_to 962 
   34.4889   -4.1575   43.8020 LP  0  0  0  0  0  0  0  0  0  0  0  0  # atno 11912 bound_to 2997
   33.7814   -3.8725   45.2460 LP  0  0  0  0  0  0  0  0  0  0  0  0  # atno 11913 bound_to 2997
   27.4395   -1.3612   41.0310 LP  0  0  0  0  0  0  0  0  0  0  0  0  # atno 11922 bound_to 1497
   26.8214   -0.2175   42.0193 LP  0  0  0  0  0  0  0  0  0  0  0  0  # atno 11923 bound_to 1497
   27.1896    0.0778   43.1031 LP  0  0  0  0  0  0  0  0  0  0  0  0  # atno 11930 bound_to 1220
   27.2134   -0.1872   44.7142 LP  0  0  0  0  0  0  0  0  0  0  0  0  # atno 11931 bound_to 1220

$$$$
****|SGG-4|sdf|1|dock82
  -GOLD-   9 72311503D 1   1.00000     0.00000

 46 48  0  0  0  0  0  0  0  0  1 V2000
   38.7457    1.1895   38.8486 S   0  0  0  0  0  0  0  0  0  0  0  0
   38.3814    1.9234   37.3385 C   0  0  0  0  0  0  0  0  0  0  0  0
   37.1111    1.9174   36.9977 N   0  0  0  0  0  0  0  0  0  0  0  0
   36.3699    1.2968   37.9832 C   0  0  0  0  0  0  0  0  0  0  0  0
   37.0812    0.8339   39.0738 C   0  0  0  0  0  0  0  0  0  0  0  0
   36.6062    0.0973   40.2845 C   0  0  0  0  0  0  0  0  0  0  0  0
   37.5925   -1.4087   40.5660 S   0  0  0  0  0  0  0  0  0  0  0  0
   37.2647   -2.2403   39.0523 C   0  0  0  0  0  0  0  0  0  0  0  0
   37.6051   -1.6224   37.8586 N   0  0  0  0  0  0  0  0  0  0  0  0
   37.3434   -2.2563   36.6502 C   0  0  0  0  0  0  0  0  0  0  0  0
   37.6932   -1.6464   35.4433 O   0  0  0  0  0  0  0  0  0  0  0  0
   36.7452   -3.4516   36.6508 N   0  0  0  0  0  0  0  0  0  0  0  0
   36.4401   -3.9785   37.8428 C   0  0  0  0  0  0  0  0  0  0  0  0
   35.5884   -5.5333   37.8244 S   0  0  0  0  0  0  0  0  0  0  0  0
   34.7558   -5.3321   39.4204 C   0  0  0  0  0  0  0  0  0  0  0  0
   33.6887   -4.2679   39.3798 C   0  0  0  0  0  0  0  0  0  0  0  0
   33.3109   -3.5840   40.5413 C   0  0  0  0  0  0  0  0  0  0  0  0
   32.3419   -2.5769   40.4913 C   0  0  0  0  0  0  0  0  0  0  0  0
   31.7161   -2.2416   39.2824 C   0  0  0  0  0  0  0  0  0  0  0  0
   32.0893   -2.9372   38.1235 C   0  0  0  0  0  0  0  0  0  0  0  0
   33.0611   -3.9398   38.1712 C   0  0  0  0  0  0  0  0  0  0  0  0
   33.3281   -4.4626   37.2550 H   0  0  0  0  0  0  0  0  0  0  0  0
   31.6278   -2.7001   37.1672 H   0  0  0  0  0  0  0  0  0  0  0  0
   30.6841   -1.1314   39.1857 C   0  0  0  0  0  0  0  0  0  0  0  0
   30.1142   -1.0535   37.7677 C   0  0  0  0  0  0  0  0  0  0  0  0
   30.8861   -0.7942   37.0347 H   0  0  0  0  0  0  0  0  0  0  0  0
   29.6786   -2.0131   37.4670 H   0  0  0  0  0  0  0  0  0  0  0  0
   29.3254   -0.2960   37.7088 H   0  0  0  0  0  0  0  0  0  0  0  0
   31.2218    0.2318   39.6295 C   0  0  0  0  0  0  0  0  0  0  0  0
   31.9388    0.6464   38.9129 H   0  0  0  0  0  0  0  0  0  0  0  0
   31.7196    0.1596   40.6027 H   0  0  0  0  0  0  0  0  0  0  0  0
   30.4020    0.9523   39.7247 H   0  0  0  0  0  0  0  0  0  0  0  0
   29.8546   -1.3734   39.8639 H   0  0  0  0  0  0  0  0  0  0  0  0
   32.0892   -2.0532   41.4100 H   0  0  0  0  0  0  0  0  0  0  0  0
   33.7742   -3.8238   41.4959 H   0  0  0  0  0  0  0  0  0  0  0  0
   35.4848   -5.0676   40.1962 H   0  0  0  0  0  0  0  0  0  0  0  0
   34.3164   -6.2915   39.7185 H   0  0  0  0  0  0  0  0  0  0  0  0
   36.6707   -3.4336   39.0433 N   0  0  0  0  0  0  0  0  0  0  0  0
   38.0432   -0.7122   37.8772 H   0  0  0  0  0  0  0  0  0  0  0  0
   36.6995    0.7537   41.1578 H   0  0  0  0  0  0  0  0  0  0  0  0
   35.5514   -0.1807   40.1840 H   0  0  0  0  0  0  0  0  0  0  0  0
   35.2977    1.2080   37.8522 H   0  0  0  0  0  0  0  0  0  0  0  0
   39.4717    2.4960   36.5038 C   0  0  0  0  0  0  0  0  0  0  0  0
   40.0409    3.2361   37.0757 H   0  0  0  0  0  0  0  0  0  0  0  0
   39.0531    2.9946   35.6239 H   0  0  0  0  0  0  0  0  0  0  0  0
   40.1694    1.7215   36.1696 H   0  0  0  0  0  0  0  0  0  0  0  0
  1  2  1  0  0  0  0
  1  5  1  0  0  0  0
  2  3  2  0  0  0  0
  2 43  1  0  0  0  0
  3  4  1  0  0  0  0
  4  5  2  0  0  0  0
  4 42  1  0  0  0  0
  5  6  1  0  0  0  0
  6  7  1  0  0  0  0
  6 40  1  0  0  0  0
  6 41  1  0  0  0  0
  7  8  1  0  0  0  0
  8  9  1  0  0  0  0
  8 38  2  0  0  0  0
  9 10  1  0  0  0  0
  9 39  1  0  0  0  0
 10 11  2  0  0  0  0
 10 12  1  0  0  0  0
 12 13  2  0  0  0  0
 13 14  1  0  0  0  0
 13 38  1  0  0  0  0
 14 15  1  0  0  0  0
 15 16  1  0  0  0  0
 15 36  1  0  0  0  0
 15 37  1  0  0  0  0
 16 17  1  0  0  0  0
 16 21  2  0  0  0  0
 17 18  2  0  0  0  0
 17 35  1  0  0  0  0
 18 19  1  0  0  0  0
 18 34  1  0  0  0  0
 19 20  2  0  0  0  0
 19 24  1  0  0  0  0
 20 21  1  0  0  0  0
 20 23  1  0  0  0  0
 21 22  1  0  0  0  0
 24 25  1  0  0  0  0
 24 29  1  0  0  0  0
 24 33  1  0  0  0  0
 25 26  1  0  0  0  0
 25 27  1  0  0  0  0
 25 28  1  0  0  0  0
 29 30  1  0  0  0  0
 29 31  1  0  0  0  0
 29 32  1  0  0  0  0
 43 44  1  0  0  0  0
 43 45  1  0  0  0  0
 43 46  1  0  0  0  0
M  END
> <Gold.Goldscore.Fitness>
67.7756

> <Gold.Goldscore.External.HBond>
1.4847

> <Gold.Protein.ActiveResidues>
 GLU87   ILE88   VAL90   ASN91   ALA92   ASP94   ASN95   ARG98   ILE118  ASN120 
 LYS123  GLY124  ILE125  ILE141  PHE142  THR147  SER148  SER149  ASN150  TYR151 
 GLY160  GLY161  ARG162  ASN163  GLY164  TYR165  GLY166  ALA167  LYS168  LEU169 
 THR181  THR215  ILE217  ILE317  GLN376  LYS378  ILE33   TYR34   MG903  

> <Gold.Goldscore.Internal.HBond>
0.0

> <Gold.Goldscore.Internal.Torsion.Weighted>
-4.6232

> <Gold.Protein.RotatedTorsions>
[ 8833 2752 2751 2750 ] final  -92.65 input   60.00 | X-H torsion
[ 6906  969  968  965 ] final -179.89 input   59.99 | X-H torsion
[ 6910  975  974  971 ] final  -12.12 input   60.00 | X-H torsion
[ 6897  962  961  958 ] final   71.11 input   60.00 | X-H torsion
[ 9084 2997 2996 2994 ] final  -38.60 input   60.00 | X-H torsion
[ 7406 1497 1496 1493 ] final  170.76 input   60.00 | X-H torsion
[ 7140 1220 1219 1216 ] final  115.27 input   60.00 | X-H torsion
[ 6926  995  994  992 ] final   25.13 input   60.0

> <Gold.Goldscore.Constraint.Score>
0.0

> <Gold.Id.Protein>
1ZXM|1ZXM_protein|mol2

> <Gold.Protein.RotatedAtoms>
   40.6750    3.3830   41.8637 H   0  0  0  0  0  0  0  0  0  0  0  0  # atno 6897 bound_to 962 
   42.5663   -2.5035   38.2571 H   0  0  0  0  0  0  0  0  0  0  0  0  # atno 6906 bound_to 969 
   38.8111   -4.3840   40.0676 H   0  0  0  0  0  0  0  0  0  0  0  0  # atno 6910 bound_to 975 
   45.8911    1.1244   38.6740 H   0  0  0  0  0  0  0  0  0  0  0  0  # atno 6926 bound_to 995 
   28.0475    0.1168   43.0607 H   0  0  0  0  0  0  0  0  0  0  0  0  # atno 7140 bound_to 1220
   28.2838   -0.9017   41.0

> <Gold.Version>
5.3.0

> <Gold.Goldscore.Internal.Correction>
-0.0166

> <Gold.Goldscore.Internal.Vdw>
-1.3472

> <Gold.Goldscore.Internal.Vdw.Weighted>
-1.3472

> <Gold.Goldscore.External.HBond.Weighted>
1.4847

> <Gold.Goldscore.External.Vdw.Weighted>
72.2447

> <Gold.Goldscore.Internal.HBond.Weighted>
0.0

> <Gold.Goldscore.Hbonds>
donor molecule, donor type, donor heavy atom, donor atom, acceptor molecule, acceptor atom, score
      L1  H     1    27       P1   757  0.74

> <Gold.Goldscore.External.Vdw>
52.5416

> <Gold.Goldscore.Internal.Torsion>
-4.6232

> <Gold.Goldscore.Internal.Correction.Weighted>
-0.0166

> <Gold.Version>
5.3.0

> <Gold.Id.Protein>
1ZXM|1ZXM_protein|mol2

> <Gold.ASP.Fitness>
25.6336

> <Gold.ASP.ASP>
29.5100

> <Gold.ASP.Map>
-147.5500

> <Gold.ASP.DEClash>
1.7464

> <Gold.ASP.DEInternal>
2.1300

> <Gold.ASP.Internal.Correction>
0.1091

> <Gold.Protein.RotatedTorsions>
[ 8924 2752 2751 2750 ] final -169.36 input   60.00 | X-H torsion
[ 6908  969  968  965 ] final -161.00 input   59.99 | X-H torsion
[ 6912  975  974  971 ] final  121.70 input   60.00 | X-H torsion
[ 6899  962  961  958 ] final  112.61 input   60.00 | X-H torsion
[ 9165 2997 2996 2994 ] final  -56.43 input   60.00 | X-H torsion
[ 7410 1497 1496 1493 ] final -104.73 input   60.00 | X-H torsion
[ 7137 1220 1219 1216 ] final   54.83 input   60.00 | X-H torsion
[ 6928  995  994  992 ] final   23.40 input   60.00 | X-H torsion

> <Gold.Protein.ActiveResidues>
 GLU87   ILE88   VAL90   ASN91   ALA92   ASP94   ASN95   ARG98   ILE118  ASN120 
 LYS123  GLY124  ILE125  ILE141  PHE142  THR147  SER148  SER149  ASN150  TYR151 
 GLY160  GLY161  ARG162  ASN163  GLY164  TYR165  GLY166  ALA167  LYS168  LEU169 
 THR181  THR215  ILE217  ILE317  GLN376  LYS378  ILE33   TYR34   MG903  

> <Gold.Protein.RotatedAtoms>
   40.3586    3.6351   42.3896 H   0  0  0  0  0  0  0  0  0  0  0  0  # atno 6899 bound_to 962 
   42.7129   -2.6953   38.4469 H   0  0  0  0  0  0  0  0  0  0  0  0  # atno 6908 bound_to 969 
   37.7899   -5.6869   40.5435 H   0  0  0  0  0  0  0  0  0  0  0  0  # atno 6912 bound_to 975 
   45.9190    1.1239   38.6692 H   0  0  0  0  0  0  0  0  0  0  0  0  # atno 6928 bound_to 995 
   27.1120    0.0676   43.1622 H   0  0  0  0  0  0  0  0  0  0  0  0  # atno 7137 bound_to 1220
   28.1371    0.1075   41.7967 H   0  0  0  0  0  0  0  0  0  0  0  0  # atno 7410 bound_to 1497
   43.3086   -0.0873   31.0644 H   0  0  0  0  0  0  0  0  0  0  0  0  # atno 8924 bound_to 2752
   43.9889   -1.0737   29.9194 H   0  0  0  0  0  0  0  0  0  0  0  0  # atno 8925 bound_to 2752
   43.7169    0.5256   29.5796 H   0  0  0  0  0  0  0  0  0  0  0  0  # atno 8926 bound_to 2752
   34.0023   -3.5864   44.4018 H   0  0  0  0  0  0  0  0  0  0  0  0  # atno 9165 bound_to 2997
   41.1919   -2.1222   38.5244 LP  0  0  0  0  0  0  0  0  0  0  0  0  # atno 11896 bound_to 969 
   41.7419   -3.1440   39.6733 LP  0  0  0  0  0  0  0  0  0  0  0  0  # atno 11897 bound_to 969 
   38.8763   -4.5951   40.0184 LP  0  0  0  0  0  0  0  0  0  0  0  0  # atno 11898 bound_to 975 
   37.5167   -4.0995   40.7751 LP  0  0  0  0  0  0  0  0  0  0  0  0  # atno 11899 bound_to 975 
   41.6997    3.8604   41.4959 LP  0  0  0  0  0  0  0  0  0  0  0  0  # atno 11904 bound_to 962 
   41.3885    4.8370   42.7672 LP  0  0  0  0  0  0  0  0  0  0  0  0  # atno 11905 bound_to 962 
   34.0450   -4.7536   45.5348 LP  0  0  0  0  0  0  0  0  0  0  0  0  # atno 11912 bound_to 2997
   34.7409   -4.9998   44.0782 LP  0  0  0  0  0  0  0  0  0  0  0  0  # atno 11913 bound_to 2997
   27.8470   -1.2597   40.9634 LP  0  0  0  0  0  0  0  0  0  0  0  0  # atno 11922 bound_to 1497
   26.6558   -0.5647   41.8378 LP  0  0  0  0  0  0  0  0  0  0  0  0  # atno 11923 bound_to 1497
   27.3015   -0.1913   44.7575 LP  0  0  0  0  0  0  0  0  0  0  0  0  # atno 11930 bound_to 1220
   28.6082    0.0121   43.7995 LP  0  0  0  0  0  0  0  0  0  0  0  0  # atno 11931 bound_to 1220

$$$$
****|SGG-4|sdf|1|dock11
  -GOLD-   9 72311443D 1   1.00000     0.00000

 46 48  0  0  0  0  0  0  0  0  1 V2000
   36.8600    0.1129   38.8988 S   0  0  0  0  0  0  0  0  0  0  0  0
   37.5636    1.6563   38.6258 C   0  0  0  0  0  0  0  0  0  0  0  0
   38.5168    1.6921   37.7203 N   0  0  0  0  0  0  0  0  0  0  0  0
   38.7124    0.4271   37.2032 C   0  0  0  0  0  0  0  0  0  0  0  0
   37.9032   -0.5682   37.7174 C   0  0  0  0  0  0  0  0  0  0  0  0
   37.8725   -2.0310   37.4119 C   0  0  0  0  0  0  0  0  0  0  0  0
   36.2196   -2.5494   36.8470 S   0  0  0  0  0  0  0  0  0  0  0  0
   35.8831   -3.7726   38.0639 C   0  0  0  0  0  0  0  0  0  0  0  0
   36.2685   -5.0829   37.8242 N   0  0  0  0  0  0  0  0  0  0  0  0
   36.0012   -6.0679   38.7669 C   0  0  0  0  0  0  0  0  0  0  0  0
   36.3957   -7.3882   38.5390 O   0  0  0  0  0  0  0  0  0  0  0  0
   35.3545   -5.7441   39.8909 N   0  0  0  0  0  0  0  0  0  0  0  0
   35.0081   -4.4604   40.0452 C   0  0  0  0  0  0  0  0  0  0  0  0
   34.0938   -4.0595   41.5102 S   0  0  0  0  0  0  0  0  0  0  0  0
   34.4413   -2.2820   41.4911 C   0  0  0  0  0  0  0  0  0  0  0  0
   33.5355   -1.5312   40.5484 C   0  0  0  0  0  0  0  0  0  0  0  0
   32.3167   -2.0802   40.1325 C   0  0  0  0  0  0  0  0  0  0  0  0
   31.4672   -1.3656   39.2819 C   0  0  0  0  0  0  0  0  0  0  0  0
   31.8237   -0.0931   38.8139 C   0  0  0  0  0  0  0  0  0  0  0  0
   33.0507    0.4480   39.2237 C   0  0  0  0  0  0  0  0  0  0  0  0
   33.8977   -0.2626   40.0777 C   0  0  0  0  0  0  0  0  0  0  0  0
   34.8441    0.1837   40.3768 H   0  0  0  0  0  0  0  0  0  0  0  0
   33.3574    1.4350   38.8838 H   0  0  0  0  0  0  0  0  0  0  0  0
   30.9112    0.7243   37.9161 C   0  0  0  0  0  0  0  0  0  0  0  0
   30.3801   -0.1366   36.7679 C   0  0  0  0  0  0  0  0  0  0  0  0
   31.1885   -0.4856   36.1160 H   0  0  0  0  0  0  0  0  0  0  0  0
   29.8560   -1.0199   37.1501 H   0  0  0  0  0  0  0  0  0  0  0  0
   29.6731    0.4310   36.1536 H   0  0  0  0  0  0  0  0  0  0  0  0
   31.5747    1.9952   37.3788 C   0  0  0  0  0  0  0  0  0  0  0  0
   32.3439    1.7752   36.6308 H   0  0  0  0  0  0  0  0  0  0  0  0
   32.0434    2.5656   38.1881 H   0  0  0  0  0  0  0  0  0  0  0  0
   30.8301    2.6411   36.9007 H   0  0  0  0  0  0  0  0  0  0  0  0
   30.0483    1.0527   38.5112 H   0  0  0  0  0  0  0  0  0  0  0  0
   30.5193   -1.8154   38.9969 H   0  0  0  0  0  0  0  0  0  0  0  0
   32.0133   -3.0674   40.4742 H   0  0  0  0  0  0  0  0  0  0  0  0
   35.4818   -2.1035   41.1934 H   0  0  0  0  0  0  0  0  0  0  0  0
   34.3346   -1.8854   42.5079 H   0  0  0  0  0  0  0  0  0  0  0  0
   35.2409   -3.4585   39.1889 N   0  0  0  0  0  0  0  0  0  0  0  0
   36.7432   -5.3117   36.9623 H   0  0  0  0  0  0  0  0  0  0  0  0
   38.6027   -2.2432   36.6219 H   0  0  0  0  0  0  0  0  0  0  0  0
   38.1495   -2.6201   38.2929 H   0  0  0  0  0  0  0  0  0  0  0  0
   39.4703    0.2859   36.4416 H   0  0  0  0  0  0  0  0  0  0  0  0
   37.0996    2.8369   39.4033 C   0  0  0  0  0  0  0  0  0  0  0  0
   36.0186    2.9676   39.2890 H   0  0  0  0  0  0  0  0  0  0  0  0
   37.5921    3.7454   39.0424 H   0  0  0  0  0  0  0  0  0  0  0  0
   37.3128    2.7226   40.4708 H   0  0  0  0  0  0  0  0  0  0  0  0
  1  2  1  0  0  0  0
  1  5  1  0  0  0  0
  2  3  2  0  0  0  0
  2 43  1  0  0  0  0
  3  4  1  0  0  0  0
  4  5  2  0  0  0  0
  4 42  1  0  0  0  0
  5  6  1  0  0  0  0
  6  7  1  0  0  0  0
  6 40  1  0  0  0  0
  6 41  1  0  0  0  0
  7  8  1  0  0  0  0
  8  9  1  0  0  0  0
  8 38  2  0  0  0  0
  9 10  1  0  0  0  0
  9 39  1  0  0  0  0
 10 11  2  0  0  0  0
 10 12  1  0  0  0  0
 12 13  2  0  0  0  0
 13 14  1  0  0  0  0
 13 38  1  0  0  0  0
 14 15  1  0  0  0  0
 15 16  1  0  0  0  0
 15 36  1  0  0  0  0
 15 37  1  0  0  0  0
 16 17  1  0  0  0  0
 16 21  2  0  0  0  0
 17 18  2  0  0  0  0
 17 35  1  0  0  0  0
 18 19  1  0  0  0  0
 18 34  1  0  0  0  0
 19 20  2  0  0  0  0
 19 24  1  0  0  0  0
 20 21  1  0  0  0  0
 20 23  1  0  0  0  0
 21 22  1  0  0  0  0
 24 25  1  0  0  0  0
 24 29  1  0  0  0  0
 24 33  1  0  0  0  0
 25 26  1  0  0  0  0
 25 27  1  0  0  0  0
 25 28  1  0  0  0  0
 29 30  1  0  0  0  0
 29 31  1  0  0  0  0
 29 32  1  0  0  0  0
 43 44  1  0  0  0  0
 43 45  1  0  0  0  0
 43 46  1  0  0  0  0
M  END
> <Gold.Goldscore.Fitness>
67.7756

> <Gold.Goldscore.External.HBond>
1.4847

> <Gold.Protein.ActiveResidues>
 GLU87   ILE88   VAL90   ASN91   ALA92   ASP94   ASN95   ARG98   ILE118  ASN120 
 LYS123  GLY124  ILE125  ILE141  PHE142  THR147  SER148  SER149  ASN150  TYR151 
 GLY160  GLY161  ARG162  ASN163  GLY164  TYR165  GLY166  ALA167  LYS168  LEU169 
 THR181  THR215  ILE217  ILE317  GLN376  LYS378  ILE33   TYR34   MG903  

> <Gold.Goldscore.Internal.HBond>
0.0

> <Gold.Goldscore.Internal.Torsion.Weighted>
-4.6232

> <Gold.Protein.RotatedTorsions>
[ 8833 2752 2751 2750 ] final  -92.65 input   60.00 | X-H torsion
[ 6906  969  968  965 ] final -179.89 input   59.99 | X-H torsion
[ 6910  975  974  971 ] final  -12.12 input   60.00 | X-H torsion
[ 6897  962  961  958 ] final   71.11 input   60.00 | X-H torsion
[ 9084 2997 2996 2994 ] final  -38.60 input   60.00 | X-H torsion
[ 7406 1497 1496 1493 ] final  170.76 input   60.00 | X-H torsion
[ 7140 1220 1219 1216 ] final  115.27 input   60.00 | X-H torsion
[ 6926  995  994  992 ] final   25.13 input   60.0

> <Gold.Goldscore.Constraint.Score>
0.0

> <Gold.Id.Protein>
1ZXM|1ZXM_protein|mol2

> <Gold.Protein.RotatedAtoms>
   40.6750    3.3830   41.8637 H   0  0  0  0  0  0  0  0  0  0  0  0  # atno 6897 bound_to 962 
   42.5663   -2.5035   38.2571 H   0  0  0  0  0  0  0  0  0  0  0  0  # atno 6906 bound_to 969 
   38.8111   -4.3840   40.0676 H   0  0  0  0  0  0  0  0  0  0  0  0  # atno 6910 bound_to 975 
   45.8911    1.1244   38.6740 H   0  0  0  0  0  0  0  0  0  0  0  0  # atno 6926 bound_to 995 
   28.0475    0.1168   43.0607 H   0  0  0  0  0  0  0  0  0  0  0  0  # atno 7140 bound_to 1220
   28.2838   -0.9017   41.0

> <Gold.Version>
5.3.0

> <Gold.Goldscore.Internal.Correction>
-0.0166

> <Gold.Goldscore.Internal.Vdw>
-1.3472

> <Gold.Goldscore.Internal.Vdw.Weighted>
-1.3472

> <Gold.Goldscore.External.HBond.Weighted>
1.4847

> <Gold.Goldscore.External.Vdw.Weighted>
72.2447

> <Gold.Goldscore.Internal.HBond.Weighted>
0.0

> <Gold.Goldscore.Hbonds>
donor molecule, donor type, donor heavy atom, donor atom, acceptor molecule, acceptor atom, score
      L1  H     1    27       P1   757  0.74

> <Gold.Goldscore.External.Vdw>
52.5416

> <Gold.Goldscore.Internal.Torsion>
-4.6232

> <Gold.Goldscore.Internal.Correction.Weighted>
-0.0166

> <Gold.Version>
5.3.0

> <Gold.Id.Protein>
1ZXM|1ZXM_protein|mol2

> <Gold.ASP.Fitness>
25.6295

> <Gold.ASP.ASP>
30.5420

> <Gold.ASP.Map>
-152.7100

> <Gold.ASP.DEClash>
2.1286

> <Gold.ASP.DEInternal>
2.7839

> <Gold.ASP.Internal.Correction>
0.1091

> <Gold.Protein.RotatedTorsions>
[ 8924 2752 2751 2750 ] final  146.44 input   60.00 | X-H torsion
[ 6908  969  968  965 ] final  -55.54 input   59.99 | X-H torsion
[ 6912  975  974  971 ] final   24.90 input   60.00 | X-H torsion
[ 6899  962  961  958 ] final   -7.78 input   60.00 | X-H torsion
[ 9165 2997 2996 2994 ] final  -47.38 input   60.00 | X-H torsion
[ 7410 1497 1496 1493 ] final  -83.92 input   60.00 | X-H torsion
[ 7137 1220 1219 1216 ] final  157.91 input   60.00 | X-H torsion
[ 6928  995  994  992 ] final  -82.95 input   60.00 | X-H torsion

> <Gold.Protein.ActiveResidues>
 GLU87   ILE88   VAL90   ASN91   ALA92   ASP94   ASN95   ARG98   ILE118  ASN120 
 LYS123  GLY124  ILE125  ILE141  PHE142  THR147  SER148  SER149  ASN150  TYR151 
 GLY160  GLY161  ARG162  ASN163  GLY164  TYR165  GLY166  ALA167  LYS168  LEU169 
 THR181  THR215  ILE217  ILE317  GLN376  LYS378  ILE33   TYR34   MG903  

> <Gold.Protein.RotatedAtoms>
   41.7011    3.8655   41.5039 H   0  0  0  0  0  0  0  0  0  0  0  0  # atno 6899 bound_to 962 
   41.9678   -3.2060   39.6320 H   0  0  0  0  0  0  0  0  0  0  0  0  # atno 6908 bound_to 969 
   38.8671   -4.9726   40.0051 H   0  0  0  0  0  0  0  0  0  0  0  0  # atno 6912 bound_to 975 
   46.9901    1.4251   39.6734 H   0  0  0  0  0  0  0  0  0  0  0  0  # atno 6928 bound_to 995 
   28.5290    0.0548   43.5380 H   0  0  0  0  0  0  0  0  0  0  0  0  # atno 7137 bound_to 1220
   27.8561    0.2049   41.9575 H   0  0  0  0  0  0  0  0  0  0  0  0  # atno 7410 bound_to 1497
   43.3018    0.5213   30.6794 H   0  0  0  0  0  0  0  0  0  0  0  0  # atno 8924 bound_to 2752
   43.7347   -1.0764   30.5931 H   0  0  0  0  0  0  0  0  0  0  0  0  # atno 8925 bound_to 2752
   43.9779   -0.0803   29.2909 H   0  0  0  0  0  0  0  0  0  0  0  0  # atno 8926 bound_to 2752
   34.0683   -3.6193   44.2737 H   0  0  0  0  0  0  0  0  0  0  0  0  # atno 9165 bound_to 2997
   42.6116   -2.5480   38.2901 LP  0  0  0  0  0  0  0  0  0  0  0  0  # atno 11896 bound_to 969 
   41.0726   -2.2040   38.7141 LP  0  0  0  0  0  0  0  0  0  0  0  0  # atno 11897 bound_to 969 
   37.8083   -3.9061   40.6293 LP  0  0  0  0  0  0  0  0  0  0  0  0  # atno 11898 bound_to 975 
   37.4997   -5.5078   40.7064 LP  0  0  0  0  0  0  0  0  0  0  0  0  # atno 11899 bound_to 975 
   41.3831    4.8361   42.7707 LP  0  0  0  0  0  0  0  0  0  0  0  0  # atno 11904 bound_to 962 
   40.3531    3.6293   42.3843 LP  0  0  0  0  0  0  0  0  0  0  0  0  # atno 11905 bound_to 962 
   33.9802   -4.6209   45.5532 LP  0  0  0  0  0  0  0  0  0  0  0  0  # atno 11912 bound_to 2997
   34.7391   -5.0994   44.1888 LP  0  0  0  0  0  0  0  0  0  0  0  0  # atno 11913 bound_to 2997
   28.1323   -1.0763   40.9930 LP  0  0  0  0  0  0  0  0  0  0  0  0  # atno 11922 bound_to 1497
   26.6535   -0.8463   41.6464 LP  0  0  0  0  0  0  0  0  0  0  0  0  # atno 11923 bound_to 1497
   26.9129    0.0275   43.3499 LP  0  0  0  0  0  0  0  0  0  0  0  0  # atno 11930 bound_to 1220
   27.5696   -0.1937   44.8286 LP  0  0  0  0  0  0  0  0  0  0  0  0  # atno 11931 bound_to 1220

$$$$
****|SGG-4|sdf|1|dock55
  -GOLD-   9 72311483D 1   1.00000     0.00000

 46 48  0  0  0  0  0  0  0  0  1 V2000
   36.9739    0.5903   38.3811 S   0  0  0  0  0  0  0  0  0  0  0  0
   37.3023    2.2495   38.6823 C   0  0  0  0  0  0  0  0  0  0  0  0
   38.3682    2.7338   38.0830 N   0  0  0  0  0  0  0  0  0  0  0  0
   38.9712    1.7413   37.3366 C   0  0  0  0  0  0  0  0  0  0  0  0
   38.3585    0.5030   37.3696 C   0  0  0  0  0  0  0  0  0  0  0  0
   38.7572   -0.7806   36.7158 C   0  0  0  0  0  0  0  0  0  0  0  0
   37.3074   -1.8429   36.4162 S   0  0  0  0  0  0  0  0  0  0  0  0
   36.8427   -2.1522   38.0831 C   0  0  0  0  0  0  0  0  0  0  0  0
   37.6332   -1.6500   39.1055 N   0  0  0  0  0  0  0  0  0  0  0  0
   37.2914   -1.8932   40.4300 C   0  0  0  0  0  0  0  0  0  0  0  0
   38.0755   -1.3817   41.4665 O   0  0  0  0  0  0  0  0  0  0  0  0
   36.2102   -2.6293   40.7054 N   0  0  0  0  0  0  0  0  0  0  0  0
   35.5036   -3.0856   39.6643 C   0  0  0  0  0  0  0  0  0  0  0  0
   34.1108   -4.1144   40.0448 S   0  0  0  0  0  0  0  0  0  0  0  0
   33.0838   -2.8117   40.7722 C   0  0  0  0  0  0  0  0  0  0  0  0
   32.6003   -1.8217   39.7431 C   0  0  0  0  0  0  0  0  0  0  0  0
   31.6232   -2.1780   38.8061 C   0  0  0  0  0  0  0  0  0  0  0  0
   31.1573   -1.2457   37.8737 C   0  0  0  0  0  0  0  0  0  0  0  0
   31.6691    0.0591   37.8451 C   0  0  0  0  0  0  0  0  0  0  0  0
   32.6561    0.4083   38.7780 C   0  0  0  0  0  0  0  0  0  0  0  0
   33.1185   -0.5206   39.7135 C   0  0  0  0  0  0  0  0  0  0  0  0
   33.8863   -0.2198   40.4236 H   0  0  0  0  0  0  0  0  0  0  0  0
   33.0725    1.4134   38.7879 H   0  0  0  0  0  0  0  0  0  0  0  0
   31.1629    1.1062   36.8683 C   0  0  0  0  0  0  0  0  0  0  0  0
   31.9407    2.4133   37.0353 C   0  0  0  0  0  0  0  0  0  0  0  0
   31.7908    2.8498   38.0290 H   0  0  0  0  0  0  0  0  0  0  0  0
   33.0161    2.2493   36.9027 H   0  0  0  0  0  0  0  0  0  0  0  0
   31.6217    3.1512   36.2915 H   0  0  0  0  0  0  0  0  0  0  0  0
   29.6560    1.3543   36.9779 C   0  0  0  0  0  0  0  0  0  0  0  0
   29.3903    1.8842   37.8989 H   0  0  0  0  0  0  0  0  0  0  0  0
   29.1003    0.4105   36.9585 H   0  0  0  0  0  0  0  0  0  0  0  0
   29.3083    1.9657   36.1379 H   0  0  0  0  0  0  0  0  0  0  0  0
   31.3436    0.7404   35.8485 H   0  0  0  0  0  0  0  0  0  0  0  0
   30.3828   -1.5525   37.1750 H   0  0  0  0  0  0  0  0  0  0  0  0
   31.2092   -3.1840   38.7990 H   0  0  0  0  0  0  0  0  0  0  0  0
   33.6487   -2.2700   41.5408 H   0  0  0  0  0  0  0  0  0  0  0  0
   32.2278   -3.2721   41.2797 H   0  0  0  0  0  0  0  0  0  0  0  0
   35.7648   -2.8832   38.3673 N   0  0  0  0  0  0  0  0  0  0  0  0
   38.4551   -1.1081   38.8781 H   0  0  0  0  0  0  0  0  0  0  0  0
   39.2389   -0.5551   35.7570 H   0  0  0  0  0  0  0  0  0  0  0  0
   39.4779   -1.3266   37.3340 H   0  0  0  0  0  0  0  0  0  0  0  0
   39.8696    1.9800   36.7794 H   0  0  0  0  0  0  0  0  0  0  0  0
   36.4169    3.0346   39.5841 C   0  0  0  0  0  0  0  0  0  0  0  0
   35.3794    2.9847   39.2377 H   0  0  0  0  0  0  0  0  0  0  0  0
   36.7222    4.0857   39.5937 H   0  0  0  0  0  0  0  0  0  0  0  0
   36.4472    2.6509   40.6089 H   0  0  0  0  0  0  0  0  0  0  0  0
  1  2  1  0  0  0  0
  1  5  1  0  0  0  0
  2  3  2  0  0  0  0
  2 43  1  0  0  0  0
  3  4  1  0  0  0  0
  4  5  2  0  0  0  0
  4 42  1  0  0  0  0
  5  6  1  0  0  0  0
  6  7  1  0  0  0  0
  6 40  1  0  0  0  0
  6 41  1  0  0  0  0
  7  8  1  0  0  0  0
  8  9  1  0  0  0  0
  8 38  2  0  0  0  0
  9 10  1  0  0  0  0
  9 39  1  0  0  0  0
 10 11  2  0  0  0  0
 10 12  1  0  0  0  0
 12 13  2  0  0  0  0
 13 14  1  0  0  0  0
 13 38  1  0  0  0  0
 14 15  1  0  0  0  0
 15 16  1  0  0  0  0
 15 36  1  0  0  0  0
 15 37  1  0  0  0  0
 16 17  1  0  0  0  0
 16 21  2  0  0  0  0
 17 18  2  0  0  0  0
 17 35  1  0  0  0  0
 18 19  1  0  0  0  0
 18 34  1  0  0  0  0
 19 20  2  0  0  0  0
 19 24  1  0  0  0  0
 20 21  1  0  0  0  0
 20 23  1  0  0  0  0
 21 22  1  0  0  0  0
 24 25  1  0  0  0  0
 24 29  1  0  0  0  0
 24 33  1  0  0  0  0
 25 26  1  0  0  0  0
 25 27  1  0  0  0  0
 25 28  1  0  0  0  0
 29 30  1  0  0  0  0
 29 31  1  0  0  0  0
 29 32  1  0  0  0  0
 43 44  1  0  0  0  0
 43 45  1  0  0  0  0
 43 46  1  0  0  0  0
M  END
> <Gold.Goldscore.Fitness>
67.7756

> <Gold.Goldscore.External.HBond>
1.4847

> <Gold.Protein.ActiveResidues>
 GLU87   ILE88   VAL90   ASN91   ALA92   ASP94   ASN95   ARG98   ILE118  ASN120 
 LYS123  GLY124  ILE125  ILE141  PHE142  THR147  SER148  SER149  ASN150  TYR151 
 GLY160  GLY161  ARG162  ASN163  GLY164  TYR165  GLY166  ALA167  LYS168  LEU169 
 THR181  THR215  ILE217  ILE317  GLN376  LYS378  ILE33   TYR34   MG903  

> <Gold.Goldscore.Internal.HBond>
0.0

> <Gold.Goldscore.Internal.Torsion.Weighted>
-4.6232

> <Gold.Protein.RotatedTorsions>
[ 8833 2752 2751 2750 ] final  -92.65 input   60.00 | X-H torsion
[ 6906  969  968  965 ] final -179.89 input   59.99 | X-H torsion
[ 6910  975  974  971 ] final  -12.12 input   60.00 | X-H torsion
[ 6897  962  961  958 ] final   71.11 input   60.00 | X-H torsion
[ 9084 2997 2996 2994 ] final  -38.60 input   60.00 | X-H torsion
[ 7406 1497 1496 1493 ] final  170.76 input   60.00 | X-H torsion
[ 7140 1220 1219 1216 ] final  115.27 input   60.00 | X-H torsion
[ 6926  995  994  992 ] final   25.13 input   60.0

> <Gold.Goldscore.Constraint.Score>
0.0

> <Gold.Id.Protein>
1ZXM|1ZXM_protein|mol2

> <Gold.Protein.RotatedAtoms>
   40.6750    3.3830   41.8637 H   0  0  0  0  0  0  0  0  0  0  0  0  # atno 6897 bound_to 962 
   42.5663   -2.5035   38.2571 H   0  0  0  0  0  0  0  0  0  0  0  0  # atno 6906 bound_to 969 
   38.8111   -4.3840   40.0676 H   0  0  0  0  0  0  0  0  0  0  0  0  # atno 6910 bound_to 975 
   45.8911    1.1244   38.6740 H   0  0  0  0  0  0  0  0  0  0  0  0  # atno 6926 bound_to 995 
   28.0475    0.1168   43.0607 H   0  0  0  0  0  0  0  0  0  0  0  0  # atno 7140 bound_to 1220
   28.2838   -0.9017   41.0

> <Gold.Version>
5.3.0

> <Gold.Goldscore.Internal.Correction>
-0.0166

> <Gold.Goldscore.Internal.Vdw>
-1.3472

> <Gold.Goldscore.Internal.Vdw.Weighted>
-1.3472

> <Gold.Goldscore.External.HBond.Weighted>
1.4847

> <Gold.Goldscore.External.Vdw.Weighted>
72.2447

> <Gold.Goldscore.Internal.HBond.Weighted>
0.0

> <Gold.Goldscore.Hbonds>
donor molecule, donor type, donor heavy atom, donor atom, acceptor molecule, acceptor atom, score
      L1  H     1    27       P1   757  0.74

> <Gold.Goldscore.External.Vdw>
52.5416

> <Gold.Goldscore.Internal.Torsion>
-4.6232

> <Gold.Goldscore.Internal.Correction.Weighted>
-0.0166

> <Gold.Version>
5.3.0

> <Gold.Id.Protein>
1ZXM|1ZXM_protein|mol2

> <Gold.ASP.Fitness>
25.6200

> <Gold.ASP.ASP>
32.5360

> <Gold.ASP.Map>
-162.6800

> <Gold.ASP.DEClash>
1.8272

> <Gold.ASP.DEInternal>
5.0889

> <Gold.ASP.Internal.Correction>
0.1091

> <Gold.Protein.RotatedTorsions>
[ 8924 2752 2751 2750 ] final   13.92 input   60.00 | X-H torsion
[ 6908  969  968  965 ] final -126.75 input   59.99 | X-H torsion
[ 6912  975  974  971 ] final  -12.59 input   60.00 | X-H torsion
[ 6899  962  961  958 ] final   28.61 input   60.00 | X-H torsion
[ 9165 2997 2996 2994 ] final -179.82 input   60.00 | X-H torsion
[ 7410 1497 1496 1493 ] final  147.12 input   60.00 | X-H torsion
[ 7137 1220 1219 1216 ] final -164.60 input   60.00 | X-H torsion
[ 6928  995  994  992 ] final  172.83 input   60.00 | X-H torsion

> <Gold.Protein.ActiveResidues>
 GLU87   ILE88   VAL90   ASN91   ALA92   ASP94   ASN95   ARG98   ILE118  ASN120 
 LYS123  GLY124  ILE125  ILE141  PHE142  THR147  SER148  SER149  ASN150  TYR151 
 GLY160  GLY161  ARG162  ASN163  GLY164  TYR165  GLY166  ALA167  LYS168  LEU169 
 THR181  THR215  ILE217  ILE317  GLN376  LYS378  ILE33   TYR34   MG903  

> <Gold.Protein.RotatedAtoms>
   41.2428    3.5024   41.5119 H   0  0  0  0  0  0  0  0  0  0  0  0  # atno 6899 bound_to 962 
   42.7468   -3.0177   38.8930 H   0  0  0  0  0  0  0  0  0  0  0  0  # atno 6908 bound_to 969 
   38.8083   -4.3773   40.0695 H   0  0  0  0  0  0  0  0  0  0  0  0  # atno 6912 bound_to 975 
   45.7154    1.5855   40.4035 H   0  0  0  0  0  0  0  0  0  0  0  0  # atno 6928 bound_to 995 
   28.5812   -0.0410   44.1295 H   0  0  0  0  0  0  0  0  0  0  0  0  # atno 7137 bound_to 1220
   28.0130   -1.1595   40.9733 H   0  0  0  0  0  0  0  0  0  0  0  0  # atno 7410 bound_to 1497
   44.0249   -0.2833   29.3013 H   0  0  0  0  0  0  0  0  0  0  0  0  # atno 8924 bound_to 2752
   43.3409    0.6284   30.5048 H   0  0  0  0  0  0  0  0  0  0  0  0  # atno 8925 bound_to 2752
   43.6486   -0.9806   30.7572 H   0  0  0  0  0  0  0  0  0  0  0  0  # atno 8926 bound_to 2752
   34.0741   -4.7981   45.5173 H   0  0  0  0  0  0  0  0  0  0  0  0  # atno 9165 bound_to 2997
   41.6291   -2.0694   38.1861 LP  0  0  0  0  0  0  0  0  0  0  0  0  # atno 11896 bound_to 969 
   41.2706   -2.8722   39.5622 LP  0  0  0  0  0  0  0  0  0  0  0  0  # atno 11897 bound_to 969 
   37.3782   -4.2776   40.8395 LP  0  0  0  0  0  0  0  0  0  0  0  0  # atno 11898 bound_to 975 
   37.9891   -5.7359   40.4313 LP  0  0  0  0  0  0  0  0  0  0  0  0  # atno 11899 bound_to 975 
   41.7997    4.7753   42.3590 LP  0  0  0  0  0  0  0  0  0  0  0  0  # atno 11904 bound_to 962 
   40.3980    4.0557   42.7880 LP  0  0  0  0  0  0  0  0  0  0  0  0  # atno 11905 bound_to 962 
   34.7385   -4.9588   44.0405 LP  0  0  0  0  0  0  0  0  0  0  0  0  # atno 11912 bound_to 2997
   33.9751   -3.5743   44.4492 LP  0  0  0  0  0  0  0  0  0  0  0  0  # atno 11913 bound_to 2997
   26.6399   -0.7274   41.7321 LP  0  0  0  0  0  0  0  0  0  0  0  0  # atno 11922 bound_to 1497
   27.9880    0.1790   41.8984 LP  0  0  0  0  0  0  0  0  0  0  0  0  # atno 11923 bound_to 1497
   27.4090    0.1008   43.0099 LP  0  0  0  0  0  0  0  0  0  0  0  0  # atno 11930 bound_to 1220
   27.0209   -0.1705   44.5727 LP  0  0  0  0  0  0  0  0  0  0  0  0  # atno 11931 bound_to 1220

$$$$
****|SGG-4|sdf|1|dock47
  -GOLD-   9 72311473D 1   1.00000     0.00000

 46 48  0  0  0  0  0  0  0  0  1 V2000
   35.1155   -9.3823   41.3930 S   0  0  0  0  0  0  0  0  0  0  0  0
   35.8980   -8.8004   42.8074 C   0  0  0  0  0  0  0  0  0  0  0  0
   36.6686   -7.7484   42.6363 N   0  0  0  0  0  0  0  0  0  0  0  0
   36.6473   -7.3695   41.3090 C   0  0  0  0  0  0  0  0  0  0  0  0
   35.8567   -8.1359   40.4739 C   0  0  0  0  0  0  0  0  0  0  0  0
   35.6344   -8.0273   38.9998 C   0  0  0  0  0  0  0  0  0  0  0  0
   36.9500   -7.0465   38.2078 S   0  0  0  0  0  0  0  0  0  0  0  0
   36.2762   -5.4399   38.4432 C   0  0  0  0  0  0  0  0  0  0  0  0
   36.8919   -4.3571   37.8341 N   0  0  0  0  0  0  0  0  0  0  0  0
   36.3835   -3.0770   38.0170 C   0  0  0  0  0  0  0  0  0  0  0  0
   36.9903   -1.9818   37.3981 O   0  0  0  0  0  0  0  0  0  0  0  0
   35.3135   -2.9000   38.7981 N   0  0  0  0  0  0  0  0  0  0  0  0
   34.7812   -3.9932   39.3576 C   0  0  0  0  0  0  0  0  0  0  0  0
   33.4033   -3.7342   40.4426 S   0  0  0  0  0  0  0  0  0  0  0  0
   33.7777   -2.0082   40.8443 C   0  0  0  0  0  0  0  0  0  0  0  0
   33.0429   -1.0400   39.9525 C   0  0  0  0  0  0  0  0  0  0  0  0
   33.7412   -0.1421   39.1365 C   0  0  0  0  0  0  0  0  0  0  0  0
   33.0539    0.7326   38.2891 C   0  0  0  0  0  0  0  0  0  0  0  0
   31.6525    0.7419   38.2499 C   0  0  0  0  0  0  0  0  0  0  0  0
   30.9569   -0.1511   39.0774 C   0  0  0  0  0  0  0  0  0  0  0  0
   31.6425   -1.0292   39.9205 C   0  0  0  0  0  0  0  0  0  0  0  0
   31.0742   -1.7093   40.5519 H   0  0  0  0  0  0  0  0  0  0  0  0
   29.8691   -0.1747   39.0695 H   0  0  0  0  0  0  0  0  0  0  0  0
   30.8747    1.6548   37.3180 C   0  0  0  0  0  0  0  0  0  0  0  0
   29.9832    0.8323   36.3852 C   0  0  0  0  0  0  0  0  0  0  0  0
   30.5736    0.1847   35.7277 H   0  0  0  0  0  0  0  0  0  0  0  0
   29.3015    0.1928   36.9574 H   0  0  0  0  0  0  0  0  0  0  0  0
   29.3743    1.4882   35.7540 H   0  0  0  0  0  0  0  0  0  0  0  0
   31.7707    2.6022   36.5157 C   0  0  0  0  0  0  0  0  0  0  0  0
   32.3447    2.0753   35.7460 H   0  0  0  0  0  0  0  0  0  0  0  0
   32.4795    3.1208   37.1704 H   0  0  0  0  0  0  0  0  0  0  0  0
   31.1652    3.3614   36.0085 H   0  0  0  0  0  0  0  0  0  0  0  0
   30.2190    2.2906   37.9284 H   0  0  0  0  0  0  0  0  0  0  0  0
   33.6304    1.4012   37.6545 H   0  0  0  0  0  0  0  0  0  0  0  0
   34.8288   -0.1212   39.1472 H   0  0  0  0  0  0  0  0  0  0  0  0
   34.8547   -1.8232   40.7496 H   0  0  0  0  0  0  0  0  0  0  0  0
   33.5195   -1.8206   41.8934 H   0  0  0  0  0  0  0  0  0  0  0  0
   35.2080   -5.2541   39.2185 N   0  0  0  0  0  0  0  0  0  0  0  0
   37.7087   -4.5084   37.2589 H   0  0  0  0  0  0  0  0  0  0  0  0
   35.6304   -9.0347   38.5671 H   0  0  0  0  0  0  0  0  0  0  0  0
   34.6653   -7.5647   38.7838 H   0  0  0  0  0  0  0  0  0  0  0  0
   37.2366   -6.5137   41.0008 H   0  0  0  0  0  0  0  0  0  0  0  0
   35.6963   -9.4901   44.1102 C   0  0  0  0  0  0  0  0  0  0  0  0
   34.6296   -9.5465   44.3504 H   0  0  0  0  0  0  0  0  0  0  0  0
   36.1969   -8.9386   44.9122 H   0  0  0  0  0  0  0  0  0  0  0  0
   36.0896  -10.5114   44.0880 H   0  0  0  0  0  0  0  0  0  0  0  0
  1  2  1  0  0  0  0
  1  5  1  0  0  0  0
  2  3  2  0  0  0  0
  2 43  1  0  0  0  0
  3  4  1  0  0  0  0
  4  5  2  0  0  0  0
  4 42  1  0  0  0  0
  5  6  1  0  0  0  0
  6  7  1  0  0  0  0
  6 40  1  0  0  0  0
  6 41  1  0  0  0  0
  7  8  1  0  0  0  0
  8  9  1  0  0  0  0
  8 38  2  0  0  0  0
  9 10  1  0  0  0  0
  9 39  1  0  0  0  0
 10 11  2  0  0  0  0
 10 12  1  0  0  0  0
 12 13  2  0  0  0  0
 13 14  1  0  0  0  0
 13 38  1  0  0  0  0
 14 15  1  0  0  0  0
 15 16  1  0  0  0  0
 15 36  1  0  0  0  0
 15 37  1  0  0  0  0
 16 17  1  0  0  0  0
 16 21  2  0  0  0  0
 17 18  2  0  0  0  0
 17 35  1  0  0  0  0
 18 19  1  0  0  0  0
 18 34  1  0  0  0  0
 19 20  2  0  0  0  0
 19 24  1  0  0  0  0
 20 21  1  0  0  0  0
 20 23  1  0  0  0  0
 21 22  1  0  0  0  0
 24 25  1  0  0  0  0
 24 29  1  0  0  0  0
 24 33  1  0  0  0  0
 25 26  1  0  0  0  0
 25 27  1  0  0  0  0
 25 28  1  0  0  0  0
 29 30  1  0  0  0  0
 29 31  1  0  0  0  0
 29 32  1  0  0  0  0
 43 44  1  0  0  0  0
 43 45  1  0  0  0  0
 43 46  1  0  0  0  0
M  END
> <Gold.Goldscore.Fitness>
67.7756

> <Gold.Goldscore.External.HBond>
1.4847

> <Gold.Protein.ActiveResidues>
 GLU87   ILE88   VAL90   ASN91   ALA92   ASP94   ASN95   ARG98   ILE118  ASN120 
 LYS123  GLY124  ILE125  ILE141  PHE142  THR147  SER148  SER149  ASN150  TYR151 
 GLY160  GLY161  ARG162  ASN163  GLY164  TYR165  GLY166  ALA167  LYS168  LEU169 
 THR181  THR215  ILE217  ILE317  GLN376  LYS378  ILE33   TYR34   MG903  

> <Gold.Goldscore.Internal.HBond>
0.0

> <Gold.Goldscore.Internal.Torsion.Weighted>
-4.6232

> <Gold.Protein.RotatedTorsions>
[ 8833 2752 2751 2750 ] final  -92.65 input   60.00 | X-H torsion
[ 6906  969  968  965 ] final -179.89 input   59.99 | X-H torsion
[ 6910  975  974  971 ] final  -12.12 input   60.00 | X-H torsion
[ 6897  962  961  958 ] final   71.11 input   60.00 | X-H torsion
[ 9084 2997 2996 2994 ] final  -38.60 input   60.00 | X-H torsion
[ 7406 1497 1496 1493 ] final  170.76 input   60.00 | X-H torsion
[ 7140 1220 1219 1216 ] final  115.27 input   60.00 | X-H torsion
[ 6926  995  994  992 ] final   25.13 input   60.0

> <Gold.Goldscore.Constraint.Score>
0.0

> <Gold.Id.Protein>
1ZXM|1ZXM_protein|mol2

> <Gold.Protein.RotatedAtoms>
   40.6750    3.3830   41.8637 H   0  0  0  0  0  0  0  0  0  0  0  0  # atno 6897 bound_to 962 
   42.5663   -2.5035   38.2571 H   0  0  0  0  0  0  0  0  0  0  0  0  # atno 6906 bound_to 969 
   38.8111   -4.3840   40.0676 H   0  0  0  0  0  0  0  0  0  0  0  0  # atno 6910 bound_to 975 
   45.8911    1.1244   38.6740 H   0  0  0  0  0  0  0  0  0  0  0  0  # atno 6926 bound_to 995 
   28.0475    0.1168   43.0607 H   0  0  0  0  0  0  0  0  0  0  0  0  # atno 7140 bound_to 1220
   28.2838   -0.9017   41.0

> <Gold.Version>
5.3.0

> <Gold.Goldscore.Internal.Correction>
-0.0166

> <Gold.Goldscore.Internal.Vdw>
-1.3472

> <Gold.Goldscore.Internal.Vdw.Weighted>
-1.3472

> <Gold.Goldscore.External.HBond.Weighted>
1.4847

> <Gold.Goldscore.External.Vdw.Weighted>
72.2447

> <Gold.Goldscore.Internal.HBond.Weighted>
0.0

> <Gold.Goldscore.Hbonds>
donor molecule, donor type, donor heavy atom, donor atom, acceptor molecule, acceptor atom, score
      L1  H     1    27       P1   757  0.74

> <Gold.Goldscore.External.Vdw>
52.5416

> <Gold.Goldscore.Internal.Torsion>
-4.6232

> <Gold.Goldscore.Internal.Correction.Weighted>
-0.0166

> <Gold.Version>
5.3.0

> <Gold.Id.Protein>
1ZXM|1ZXM_protein|mol2

> <Gold.ASP.Fitness>
25.4579

> <Gold.ASP.ASP>
28.2860

> <Gold.ASP.Map>
-141.4300

> <Gold.ASP.DEClash>
1.8682

> <Gold.ASP.DEInternal>
0.9599

> <Gold.ASP.Internal.Correction>
0.1091

> <Gold.Protein.RotatedTorsions>
[ 8924 2752 2751 2750 ] final  -65.33 input   60.00 | X-H torsion
[ 6908  969  968  965 ] final -151.28 input   59.99 | X-H torsion
[ 6912  975  974  971 ] final  112.52 input   60.00 | X-H torsion
[ 6899  962  961  958 ] final -151.16 input   60.00 | X-H torsion
[ 9165 2997 2996 2994 ] final  160.53 input   60.00 | X-H torsion
[ 7410 1497 1496 1493 ] final -127.08 input   60.00 | X-H torsion
[ 7137 1220 1219 1216 ] final -151.69 input   60.00 | X-H torsion
[ 6928  995  994  992 ] final -112.32 input   60.00 | X-H torsion

> <Gold.Protein.ActiveResidues>
 GLU87   ILE88   VAL90   ASN91   ALA92   ASP94   ASN95   ARG98   ILE118  ASN120 
 LYS123  GLY124  ILE125  ILE141  PHE142  THR147  SER148  SER149  ASN150  TYR151 
 GLY160  GLY161  ARG162  ASN163  GLY164  TYR165  GLY166  ALA167  LYS168  LEU169 
 THR181  THR215  ILE217  ILE317  GLN376  LYS378  ILE33   TYR34   MG903  

> <Gold.Protein.RotatedAtoms>
   41.0561    4.7167   42.9249 H   0  0  0  0  0  0  0  0  0  0  0  0  # atno 6899 bound_to 962 
   42.7543   -2.7937   38.5644 H   0  0  0  0  0  0  0  0  0  0  0  0  # atno 6908 bound_to 969 
   37.9177   -5.7208   40.4730 H   0  0  0  0  0  0  0  0  0  0  0  0  # atno 6912 bound_to 975 
   46.8106    1.5347   40.0990 H   0  0  0  0  0  0  0  0  0  0  0  0  # atno 6928 bound_to 995 
   28.5085   -0.0756   44.3241 H   0  0  0  0  0  0  0  0  0  0  0  0  # atno 7137 bound_to 1220
   28.3525   -0.0948   41.5862 H   0  0  0  0  0  0  0  0  0  0  0  0  # atno 7410 bound_to 1497
   43.9119   -1.1378   30.1656 H   0  0  0  0  0  0  0  0  0  0  0  0  # atno 8924 bound_to 2752
   43.8232    0.3404   29.4211 H   0  0  0  0  0  0  0  0  0  0  0  0  # atno 8925 bound_to 2752
   43.2793    0.1619   30.9766 H   0  0  0  0  0  0  0  0  0  0  0  0  # atno 8926 bound_to 2752
   34.2323   -5.0444   45.3892 H   0  0  0  0  0  0  0  0  0  0  0  0  # atno 9165 bound_to 2997
   41.2970   -2.0863   38.4095 LP  0  0  0  0  0  0  0  0  0  0  0  0  # atno 11896 bound_to 969 
   41.5952   -3.0809   39.6698 LP  0  0  0  0  0  0  0  0  0  0  0  0  # atno 11897 bound_to 969 
   38.8409   -4.4509   40.0453 LP  0  0  0  0  0  0  0  0  0  0  0  0  # atno 11898 bound_to 975 
   37.4233   -4.2096   40.8191 LP  0  0  0  0  0  0  0  0  0  0  0  0  # atno 11899 bound_to 975 
   40.4917    3.4463   42.0789 LP  0  0  0  0  0  0  0  0  0  0  0  0  # atno 11904 bound_to 962 
   41.8940    4.1618   41.6451 LP  0  0  0  0  0  0  0  0  0  0  0  0  # atno 11905 bound_to 962 
   34.6921   -4.6907   43.8688 LP  0  0  0  0  0  0  0  0  0  0  0  0  # atno 11912 bound_to 2997
   33.8622   -3.5945   44.7498 LP  0  0  0  0  0  0  0  0  0  0  0  0  # atno 11913 bound_to 2997
   27.4984   -1.3564   41.0145 LP  0  0  0  0  0  0  0  0  0  0  0  0  # atno 11922 bound_to 1497
   26.7875   -0.2643   41.9987 LP  0  0  0  0  0  0  0  0  0  0  0  0  # atno 11923 bound_to 1497
   27.6179    0.1137   42.9755 LP  0  0  0  0  0  0  0  0  0  0  0  0  # atno 11930 bound_to 1220
   26.8853   -0.1486   44.4112 LP  0  0  0  0  0  0  0  0  0  0  0  0  # atno 11931 bound_to 1220

$$$$
****|SGG-4|sdf|1|dock87
  -GOLD-   9 72311513D 1   1.00000     0.00000

 46 48  0  0  0  0  0  0  0  0  1 V2000
   37.3377    0.8417   37.9160 S   0  0  0  0  0  0  0  0  0  0  0  0
   37.9185    2.4578   37.9651 C   0  0  0  0  0  0  0  0  0  0  0  0
   39.1719    2.6205   37.6014 N   0  0  0  0  0  0  0  0  0  0  0  0
   39.7177    1.3991   37.2605 C   0  0  0  0  0  0  0  0  0  0  0  0
   38.8741    0.3095   37.3647 C   0  0  0  0  0  0  0  0  0  0  0  0
   39.1442   -1.1386   37.1114 C   0  0  0  0  0  0  0  0  0  0  0  0
   37.6099   -2.0303   36.6979 S   0  0  0  0  0  0  0  0  0  0  0  0
   36.9779   -2.2600   38.3222 C   0  0  0  0  0  0  0  0  0  0  0  0
   37.7478   -1.8638   39.4052 N   0  0  0  0  0  0  0  0  0  0  0  0
   37.2731   -2.0476   40.6980 C   0  0  0  0  0  0  0  0  0  0  0  0
   38.0368   -1.6412   41.7945 O   0  0  0  0  0  0  0  0  0  0  0  0
   36.0825   -2.6254   40.8851 N   0  0  0  0  0  0  0  0  0  0  0  0
   35.4033   -2.9878   39.7902 C   0  0  0  0  0  0  0  0  0  0  0  0
   33.8564   -3.8118   40.0568 S   0  0  0  0  0  0  0  0  0  0  0  0
   32.9996   -2.4051   40.8103 C   0  0  0  0  0  0  0  0  0  0  0  0
   32.5684   -1.3831   39.7893 C   0  0  0  0  0  0  0  0  0  0  0  0
   33.5113   -0.5973   39.1161 C   0  0  0  0  0  0  0  0  0  0  0  0
   33.1067    0.3275   38.1483 C   0  0  0  0  0  0  0  0  0  0  0  0
   31.7493    0.5004   37.8430 C   0  0  0  0  0  0  0  0  0  0  0  0
   30.8075   -0.2805   38.5281 C   0  0  0  0  0  0  0  0  0  0  0  0
   31.2109   -1.2086   39.4913 C   0  0  0  0  0  0  0  0  0  0  0  0
   30.4559   -1.7989   40.0070 H   0  0  0  0  0  0  0  0  0  0  0  0
   29.7460   -0.1762   38.3134 H   0  0  0  0  0  0  0  0  0  0  0  0
   31.2770    1.4715   36.7749 C   0  0  0  0  0  0  0  0  0  0  0  0
   31.9221    2.8442   36.9776 C   0  0  0  0  0  0  0  0  0  0  0  0
   31.6229    3.2955   37.9300 H   0  0  0  0  0  0  0  0  0  0  0  0
   33.0153    2.7680   36.9743 H   0  0  0  0  0  0  0  0  0  0  0  0
   31.6331    3.5300   36.1741 H   0  0  0  0  0  0  0  0  0  0  0  0
   29.7525    1.5940   36.7031 C   0  0  0  0  0  0  0  0  0  0  0  0
   29.3397    2.1265   37.5666 H   0  0  0  0  0  0  0  0  0  0  0  0
   29.2810    0.6063   36.6578 H   0  0  0  0  0  0  0  0  0  0  0  0
   29.4565    2.1486   35.8058 H   0  0  0  0  0  0  0  0  0  0  0  0
   31.6040    1.0922   35.7972 H   0  0  0  0  0  0  0  0  0  0  0  0
   33.8689    0.9052   37.6312 H   0  0  0  0  0  0  0  0  0  0  0  0
   34.5718   -0.7042   39.3335 H   0  0  0  0  0  0  0  0  0  0  0  0
   33.6514   -1.9142   41.5434 H   0  0  0  0  0  0  0  0  0  0  0  0
   32.1272   -2.7721   41.3641 H   0  0  0  0  0  0  0  0  0  0  0  0
   35.7906   -2.8332   38.5184 N   0  0  0  0  0  0  0  0  0  0  0  0
   38.6519   -1.4422   39.2448 H   0  0  0  0  0  0  0  0  0  0  0  0
   39.8454   -1.2268   36.2731 H   0  0  0  0  0  0  0  0  0  0  0  0
   39.6054   -1.6090   37.9866 H   0  0  0  0  0  0  0  0  0  0  0  0
   40.7517    1.3611   36.9381 H   0  0  0  0  0  0  0  0  0  0  0  0
   37.0252    3.5594   38.4147 C   0  0  0  0  0  0  0  0  0  0  0  0
   36.1117    3.5795   37.8115 H   0  0  0  0  0  0  0  0  0  0  0  0
   37.5284    4.5249   38.3022 H   0  0  0  0  0  0  0  0  0  0  0  0
   36.7328    3.4359   39.4623 H   0  0  0  0  0  0  0  0  0  0  0  0
  1  2  1  0  0  0  0
  1  5  1  0  0  0  0
  2  3  2  0  0  0  0
  2 43  1  0  0  0  0
  3  4  1  0  0  0  0
  4  5  2  0  0  0  0
  4 42  1  0  0  0  0
  5  6  1  0  0  0  0
  6  7  1  0  0  0  0
  6 40  1  0  0  0  0
  6 41  1  0  0  0  0
  7  8  1  0  0  0  0
  8  9  1  0  0  0  0
  8 38  2  0  0  0  0
  9 10  1  0  0  0  0
  9 39  1  0  0  0  0
 10 11  2  0  0  0  0
 10 12  1  0  0  0  0
 12 13  2  0  0  0  0
 13 14  1  0  0  0  0
 13 38  1  0  0  0  0
 14 15  1  0  0  0  0
 15 16  1  0  0  0  0
 15 36  1  0  0  0  0
 15 37  1  0  0  0  0
 16 17  1  0  0  0  0
 16 21  2  0  0  0  0
 17 18  2  0  0  0  0
 17 35  1  0  0  0  0
 18 19  1  0  0  0  0
 18 34  1  0  0  0  0
 19 20  2  0  0  0  0
 19 24  1  0  0  0  0
 20 21  1  0  0  0  0
 20 23  1  0  0  0  0
 21 22  1  0  0  0  0
 24 25  1  0  0  0  0
 24 29  1  0  0  0  0
 24 33  1  0  0  0  0
 25 26  1  0  0  0  0
 25 27  1  0  0  0  0
 25 28  1  0  0  0  0
 29 30  1  0  0  0  0
 29 31  1  0  0  0  0
 29 32  1  0  0  0  0
 43 44  1  0  0  0  0
 43 45  1  0  0  0  0
 43 46  1  0  0  0  0
M  END
> <Gold.Goldscore.Fitness>
67.7756

> <Gold.Goldscore.External.HBond>
1.4847

> <Gold.Protein.ActiveResidues>
 GLU87   ILE88   VAL90   ASN91   ALA92   ASP94   ASN95   ARG98   ILE118  ASN120 
 LYS123  GLY124  ILE125  ILE141  PHE142  THR147  SER148  SER149  ASN150  TYR151 
 GLY160  GLY161  ARG162  ASN163  GLY164  TYR165  GLY166  ALA167  LYS168  LEU169 
 THR181  THR215  ILE217  ILE317  GLN376  LYS378  ILE33   TYR34   MG903  

> <Gold.Goldscore.Internal.HBond>
0.0

> <Gold.Goldscore.Internal.Torsion.Weighted>
-4.6232

> <Gold.Protein.RotatedTorsions>
[ 8833 2752 2751 2750 ] final  -92.65 input   60.00 | X-H torsion
[ 6906  969  968  965 ] final -179.89 input   59.99 | X-H torsion
[ 6910  975  974  971 ] final  -12.12 input   60.00 | X-H torsion
[ 6897  962  961  958 ] final   71.11 input   60.00 | X-H torsion
[ 9084 2997 2996 2994 ] final  -38.60 input   60.00 | X-H torsion
[ 7406 1497 1496 1493 ] final  170.76 input   60.00 | X-H torsion
[ 7140 1220 1219 1216 ] final  115.27 input   60.00 | X-H torsion
[ 6926  995  994  992 ] final   25.13 input   60.0

> <Gold.Goldscore.Constraint.Score>
0.0

> <Gold.Id.Protein>
1ZXM|1ZXM_protein|mol2

> <Gold.Protein.RotatedAtoms>
   40.6750    3.3830   41.8637 H   0  0  0  0  0  0  0  0  0  0  0  0  # atno 6897 bound_to 962 
   42.5663   -2.5035   38.2571 H   0  0  0  0  0  0  0  0  0  0  0  0  # atno 6906 bound_to 969 
   38.8111   -4.3840   40.0676 H   0  0  0  0  0  0  0  0  0  0  0  0  # atno 6910 bound_to 975 
   45.8911    1.1244   38.6740 H   0  0  0  0  0  0  0  0  0  0  0  0  # atno 6926 bound_to 995 
   28.0475    0.1168   43.0607 H   0  0  0  0  0  0  0  0  0  0  0  0  # atno 7140 bound_to 1220
   28.2838   -0.9017   41.0

> <Gold.Version>
5.3.0

> <Gold.Goldscore.Internal.Correction>
-0.0166

> <Gold.Goldscore.Internal.Vdw>
-1.3472

> <Gold.Goldscore.Internal.Vdw.Weighted>
-1.3472

> <Gold.Goldscore.External.HBond.Weighted>
1.4847

> <Gold.Goldscore.External.Vdw.Weighted>
72.2447

> <Gold.Goldscore.Internal.HBond.Weighted>
0.0

> <Gold.Goldscore.Hbonds>
donor molecule, donor type, donor heavy atom, donor atom, acceptor molecule, acceptor atom, score
      L1  H     1    27       P1   757  0.74

> <Gold.Goldscore.External.Vdw>
52.5416

> <Gold.Goldscore.Internal.Torsion>
-4.6232

> <Gold.Goldscore.Internal.Correction.Weighted>
-0.0166

> <Gold.Version>
5.3.0

> <Gold.Id.Protein>
1ZXM|1ZXM_protein|mol2

> <Gold.ASP.Fitness>
25.4407

> <Gold.ASP.ASP>
29.6880

> <Gold.ASP.Map>
-148.4400

> <Gold.ASP.DEClash>
3.5525

> <Gold.ASP.DEInternal>
0.6948

> <Gold.ASP.Internal.Correction>
0.1091

> <Gold.Protein.RotatedTorsions>
[ 8924 2752 2751 2750 ] final  175.66 input   60.00 | X-H torsion
[ 6908  969  968  965 ] final  -44.78 input   59.99 | X-H torsion
[ 6912  975  974  971 ] final -147.44 input   60.00 | X-H torsion
[ 6899  962  961  958 ] final  -11.29 input   60.00 | X-H torsion
[ 9165 2997 2996 2994 ] final  -51.90 input   60.00 | X-H torsion
[ 7410 1497 1496 1493 ] final  -67.14 input   60.00 | X-H torsion
[ 7137 1220 1219 1216 ] final   88.61 input   60.00 | X-H torsion
[ 6928  995  994  992 ] final  -24.01 input   60.00 | X-H torsion

> <Gold.Protein.ActiveResidues>
 GLU87   ILE88   VAL90   ASN91   ALA92   ASP94   ASN95   ARG98   ILE118  ASN120 
 LYS123  GLY124  ILE125  ILE141  PHE142  THR147  SER148  SER149  ASN150  TYR151 
 GLY160  GLY161  ARG162  ASN163  GLY164  TYR165  GLY166  ALA167  LYS168  LEU169 
 THR181  THR215  ILE217  ILE317  GLN376  LYS378  ILE33   TYR34   MG903  

> <Gold.Protein.RotatedAtoms>
   41.7361    3.9083   41.5188 H   0  0  0  0  0  0  0  0  0  0  0  0  # atno 6899 bound_to 962 
   41.8016   -3.1595   39.6642 H   0  0  0  0  0  0  0  0  0  0  0  0  # atno 6908 bound_to 969 
   37.2857   -4.4987   40.8796 H   0  0  0  0  0  0  0  0  0  0  0  0  # atno 6912 bound_to 975 
   46.6461    1.1936   38.8508 H   0  0  0  0  0  0  0  0  0  0  0  0  # atno 6928 bound_to 995 
   27.6230    0.1150   42.9822 H   0  0  0  0  0  0  0  0  0  0  0  0  # atno 7137 bound_to 1220
   27.5981    0.2100   42.0475 H   0  0  0  0  0  0  0  0  0  0  0  0  # atno 7410 bound_to 1497
   43.2803    0.1472   30.9839 H   0  0  0  0  0  0  0  0  0  0  0  0  # atno 8924 bound_to 2752
   43.9172   -1.1359   30.1501 H   0  0  0  0  0  0  0  0  0  0  0  0  # atno 8925 bound_to 2752
   43.8169    0.3533   29.4293 H   0  0  0  0  0  0  0  0  0  0  0  0  # atno 8926 bound_to 2752
   34.0346   -3.6002   44.3367 H   0  0  0  0  0  0  0  0  0  0  0  0  # atno 9165 bound_to 2997
   42.6953   -2.6585   38.3999 LP  0  0  0  0  0  0  0  0  0  0  0  0  # atno 11896 bound_to 969 
   41.1563   -2.1403   38.5719 LP  0  0  0  0  0  0  0  0  0  0  0  0  # atno 11897 bound_to 969 
   38.2038   -5.7188   40.3171 LP  0  0  0  0  0  0  0  0  0  0  0  0  # atno 11898 bound_to 975 
   38.6969   -4.1724   40.1380 LP  0  0  0  0  0  0  0  0  0  0  0  0  # atno 11899 bound_to 975 
   41.3349    4.8264   42.8010 LP  0  0  0  0  0  0  0  0  0  0  0  0  # atno 11904 bound_to 962 
   40.3659    3.5959   42.3390 LP  0  0  0  0  0  0  0  0  0  0  0  0  # atno 11905 bound_to 962 
   34.0118   -4.6880   45.5468 LP  0  0  0  0  0  0  0  0  0  0  0  0  # atno 11912 bound_to 2997
   34.7415   -5.0515   44.1318 LP  0  0  0  0  0  0  0  0  0  0  0  0  # atno 11913 bound_to 2997
   28.3084   -0.8787   41.0687 LP  0  0  0  0  0  0  0  0  0  0  0  0  # atno 11922 bound_to 1497
   26.7372   -1.0489   41.4799 LP  0  0  0  0  0  0  0  0  0  0  0  0  # atno 11923 bound_to 1497
   26.8827   -0.1480   44.4072 LP  0  0  0  0  0  0  0  0  0  0  0  0  # atno 11930 bound_to 1220
   28.5124   -0.0789   44.3310 LP  0  0  0  0  0  0  0  0  0  0  0  0  # atno 11931 bound_to 1220

$$$$
****|SGG-4|sdf|1|dock61
  -GOLD-   9 72311483D 1   1.00000     0.00000

 46 48  0  0  0  0  0  0  0  0  1 V2000
   38.5438   -0.1518   37.8585 S   0  0  0  0  0  0  0  0  0  0  0  0
   39.6768    0.4750   36.7293 C   0  0  0  0  0  0  0  0  0  0  0  0
   39.6958    1.7850   36.6138 N   0  0  0  0  0  0  0  0  0  0  0  0
   38.7611    2.3389   37.4654 C   0  0  0  0  0  0  0  0  0  0  0  0
   38.0343    1.4454   38.2292 C   0  0  0  0  0  0  0  0  0  0  0  0
   36.9375    1.6970   39.2129 C   0  0  0  0  0  0  0  0  0  0  0  0
   35.3030    1.5961   38.4140 S   0  0  0  0  0  0  0  0  0  0  0  0
   35.0347   -0.1357   38.5519 C   0  0  0  0  0  0  0  0  0  0  0  0
   35.5281   -0.9731   37.5629 N   0  0  0  0  0  0  0  0  0  0  0  0
   35.3167   -2.3438   37.6455 C   0  0  0  0  0  0  0  0  0  0  0  0
   35.8198   -3.1960   36.6599 O   0  0  0  0  0  0  0  0  0  0  0  0
   34.6193   -2.8408   38.6718 N   0  0  0  0  0  0  0  0  0  0  0  0
   34.1689   -1.9676   39.5808 C   0  0  0  0  0  0  0  0  0  0  0  0
   33.1903   -2.6349   40.9000 S   0  0  0  0  0  0  0  0  0  0  0  0
   31.6647   -2.8363   39.9446 C   0  0  0  0  0  0  0  0  0  0  0  0
   31.3294   -1.6095   39.1351 C   0  0  0  0  0  0  0  0  0  0  0  0
   31.5053   -0.3268   39.6674 C   0  0  0  0  0  0  0  0  0  0  0  0
   31.2210    0.8076   38.9005 C   0  0  0  0  0  0  0  0  0  0  0  0
   30.7383    0.6861   37.5898 C   0  0  0  0  0  0  0  0  0  0  0  0
   30.5526   -0.6008   37.0648 C   0  0  0  0  0  0  0  0  0  0  0  0
   30.8414   -1.7347   37.8281 C   0  0  0  0  0  0  0  0  0  0  0  0
   30.6854   -2.7199   37.3930 H   0  0  0  0  0  0  0  0  0  0  0  0
   30.1840   -0.7326   36.0496 H   0  0  0  0  0  0  0  0  0  0  0  0
   30.4507    1.8958   36.7176 C   0  0  0  0  0  0  0  0  0  0  0  0
   29.7834    1.4651   35.4097 C   0  0  0  0  0  0  0  0  0  0  0  0
   30.4421    0.8274   34.8098 H   0  0  0  0  0  0  0  0  0  0  0  0
   28.8635    0.9025   35.6055 H   0  0  0  0  0  0  0  0  0  0  0  0
   29.5178    2.3386   34.8048 H   0  0  0  0  0  0  0  0  0  0  0  0
   31.6926    2.7465   36.4382 C   0  0  0  0  0  0  0  0  0  0  0  0
   32.3905    2.2477   35.7573 H   0  0  0  0  0  0  0  0  0  0  0  0
   32.2294    2.9741   37.3656 H   0  0  0  0  0  0  0  0  0  0  0  0
   31.4071    3.6969   35.9740 H   0  0  0  0  0  0  0  0  0  0  0  0
   29.7441    2.5448   37.2526 H   0  0  0  0  0  0  0  0  0  0  0  0
   31.3897    1.7875   39.3402 H   0  0  0  0  0  0  0  0  0  0  0  0
   31.8738   -0.1987   40.6829 H   0  0  0  0  0  0  0  0  0  0  0  0
   30.8245   -3.0536   40.6155 H   0  0  0  0  0  0  0  0  0  0  0  0
   31.7687   -3.7044   39.2828 H   0  0  0  0  0  0  0  0  0  0  0  0
   34.3424   -0.6405   39.5731 N   0  0  0  0  0  0  0  0  0  0  0  0
   36.0404   -0.5779   36.7869 H   0  0  0  0  0  0  0  0  0  0  0  0
   36.9940    0.9431   40.0069 H   0  0  0  0  0  0  0  0  0  0  0  0
   37.0475    2.6831   39.6770 H   0  0  0  0  0  0  0  0  0  0  0  0
   38.6500    3.4167   37.4888 H   0  0  0  0  0  0  0  0  0  0  0  0
   40.5418   -0.4492   35.9476 C   0  0  0  0  0  0  0  0  0  0  0  0
   41.1075   -1.1022   36.6202 H   0  0  0  0  0  0  0  0  0  0  0  0
   41.2567    0.1199   35.3450 H   0  0  0  0  0  0  0  0  0  0  0  0
   39.9498   -1.0853   35.2819 H   0  0  0  0  0  0  0  0  0  0  0  0
  1  2  1  0  0  0  0
  1  5  1  0  0  0  0
  2  3  2  0  0  0  0
  2 43  1  0  0  0  0
  3  4  1  0  0  0  0
  4  5  2  0  0  0  0
  4 42  1  0  0  0  0
  5  6  1  0  0  0  0
  6  7  1  0  0  0  0
  6 40  1  0  0  0  0
  6 41  1  0  0  0  0
  7  8  1  0  0  0  0
  8  9  1  0  0  0  0
  8 38  2  0  0  0  0
  9 10  1  0  0  0  0
  9 39  1  0  0  0  0
 10 11  2  0  0  0  0
 10 12  1  0  0  0  0
 12 13  2  0  0  0  0
 13 14  1  0  0  0  0
 13 38  1  0  0  0  0
 14 15  1  0  0  0  0
 15 16  1  0  0  0  0
 15 36  1  0  0  0  0
 15 37  1  0  0  0  0
 16 17  1  0  0  0  0
 16 21  2  0  0  0  0
 17 18  2  0  0  0  0
 17 35  1  0  0  0  0
 18 19  1  0  0  0  0
 18 34  1  0  0  0  0
 19 20  2  0  0  0  0
 19 24  1  0  0  0  0
 20 21  1  0  0  0  0
 20 23  1  0  0  0  0
 21 22  1  0  0  0  0
 24 25  1  0  0  0  0
 24 29  1  0  0  0  0
 24 33  1  0  0  0  0
 25 26  1  0  0  0  0
 25 27  1  0  0  0  0
 25 28  1  0  0  0  0
 29 30  1  0  0  0  0
 29 31  1  0  0  0  0
 29 32  1  0  0  0  0
 43 44  1  0  0  0  0
 43 45  1  0  0  0  0
 43 46  1  0  0  0  0
M  END
> <Gold.Goldscore.Fitness>
67.7756

> <Gold.Goldscore.External.HBond>
1.4847

> <Gold.Protein.ActiveResidues>
 GLU87   ILE88   VAL90   ASN91   ALA92   ASP94   ASN95   ARG98   ILE118  ASN120 
 LYS123  GLY124  ILE125  ILE141  PHE142  THR147  SER148  SER149  ASN150  TYR151 
 GLY160  GLY161  ARG162  ASN163  GLY164  TYR165  GLY166  ALA167  LYS168  LEU169 
 THR181  THR215  ILE217  ILE317  GLN376  LYS378  ILE33   TYR34   MG903  

> <Gold.Goldscore.Internal.HBond>
0.0

> <Gold.Goldscore.Internal.Torsion.Weighted>
-4.6232

> <Gold.Protein.RotatedTorsions>
[ 8833 2752 2751 2750 ] final  -92.65 input   60.00 | X-H torsion
[ 6906  969  968  965 ] final -179.89 input   59.99 | X-H torsion
[ 6910  975  974  971 ] final  -12.12 input   60.00 | X-H torsion
[ 6897  962  961  958 ] final   71.11 input   60.00 | X-H torsion
[ 9084 2997 2996 2994 ] final  -38.60 input   60.00 | X-H torsion
[ 7406 1497 1496 1493 ] final  170.76 input   60.00 | X-H torsion
[ 7140 1220 1219 1216 ] final  115.27 input   60.00 | X-H torsion
[ 6926  995  994  992 ] final   25.13 input   60.0

> <Gold.Goldscore.Constraint.Score>
0.0

> <Gold.Id.Protein>
1ZXM|1ZXM_protein|mol2

> <Gold.Protein.RotatedAtoms>
   40.6750    3.3830   41.8637 H   0  0  0  0  0  0  0  0  0  0  0  0  # atno 6897 bound_to 962 
   42.5663   -2.5035   38.2571 H   0  0  0  0  0  0  0  0  0  0  0  0  # atno 6906 bound_to 969 
   38.8111   -4.3840   40.0676 H   0  0  0  0  0  0  0  0  0  0  0  0  # atno 6910 bound_to 975 
   45.8911    1.1244   38.6740 H   0  0  0  0  0  0  0  0  0  0  0  0  # atno 6926 bound_to 995 
   28.0475    0.1168   43.0607 H   0  0  0  0  0  0  0  0  0  0  0  0  # atno 7140 bound_to 1220
   28.2838   -0.9017   41.0

> <Gold.Version>
5.3.0

> <Gold.Goldscore.Internal.Correction>
-0.0166

> <Gold.Goldscore.Internal.Vdw>
-1.3472

> <Gold.Goldscore.Internal.Vdw.Weighted>
-1.3472

> <Gold.Goldscore.External.HBond.Weighted>
1.4847

> <Gold.Goldscore.External.Vdw.Weighted>
72.2447

> <Gold.Goldscore.Internal.HBond.Weighted>
0.0

> <Gold.Goldscore.Hbonds>
donor molecule, donor type, donor heavy atom, donor atom, acceptor molecule, acceptor atom, score
      L1  H     1    27       P1   757  0.74

> <Gold.Goldscore.External.Vdw>
52.5416

> <Gold.Goldscore.Internal.Torsion>
-4.6232

> <Gold.Goldscore.Internal.Correction.Weighted>
-0.0166

> <Gold.Version>
5.3.0

> <Gold.Id.Protein>
1ZXM|1ZXM_protein|mol2

> <Gold.ASP.Fitness>
25.4222

> <Gold.ASP.ASP>
28.5120

> <Gold.ASP.Map>
-142.5600

> <Gold.ASP.DEClash>
0.3919

> <Gold.ASP.DEInternal>
2.6979

> <Gold.ASP.Internal.Correction>
0.1091

> <Gold.Protein.RotatedTorsions>
[ 8924 2752 2751 2750 ] final  -64.12 input   60.00 | X-H torsion
[ 6908  969  968  965 ] final   71.51 input   59.99 | X-H torsion
[ 6912  975  974  971 ] final   68.79 input   60.00 | X-H torsion
[ 6899  962  961  958 ] final   60.21 input   60.00 | X-H torsion
[ 9165 2997 2996 2994 ] final  123.28 input   60.00 | X-H torsion
[ 7410 1497 1496 1493 ] final  118.34 input   60.00 | X-H torsion
[ 7137 1220 1219 1216 ] final   19.13 input   60.00 | X-H torsion
[ 6928  995  994  992 ] final   73.85 input   60.00 | X-H torsion

> <Gold.Protein.ActiveResidues>
 GLU87   ILE88   VAL90   ASN91   ALA92   ASP94   ASN95   ARG98   ILE118  ASN120 
 LYS123  GLY124  ILE125  ILE141  PHE142  THR147  SER148  SER149  ASN150  TYR151 
 GLY160  GLY161  ARG162  ASN163  GLY164  TYR165  GLY166  ALA167  LYS168  LEU169 
 THR181  THR215  ILE217  ILE317  GLN376  LYS378  ILE33   TYR34   MG903  

> <Gold.Protein.RotatedAtoms>
   40.8077    3.3762   41.7456 H   0  0  0  0  0  0  0  0  0  0  0  0  # atno 6899 bound_to 962 
   41.1305   -2.1620   38.6230 H   0  0  0  0  0  0  0  0  0  0  0  0  # atno 6908 bound_to 969 
   38.5193   -5.5599   40.1592 H   0  0  0  0  0  0  0  0  0  0  0  0  # atno 6912 bound_to 975 
   45.2579    1.2225   39.1052 H   0  0  0  0  0  0  0  0  0  0  0  0  # atno 6928 bound_to 995 
   26.7802   -0.0198   43.6222 H   0  0  0  0  0  0  0  0  0  0  0  0  # atno 7137 bound_to 1220
   27.5833   -1.3368   40.9964 H   0  0  0  0  0  0  0  0  0  0  0  0  # atno 7410 bound_to 1497
   43.9185   -1.1354   30.1466 H   0  0  0  0  0  0  0  0  0  0  0  0  # atno 8924 bound_to 2752
   43.8154    0.3562   29.4312 H   0  0  0  0  0  0  0  0  0  0  0  0  # atno 8925 bound_to 2752
   43.2805    0.1438   30.9855 H   0  0  0  0  0  0  0  0  0  0  0  0  # atno 8926 bound_to 2752
   34.5266   -5.3023   44.9371 H   0  0  0  0  0  0  0  0  0  0  0  0  # atno 9165 bound_to 2997
   41.8579   -3.1831   39.6604 LP  0  0  0  0  0  0  0  0  0  0  0  0  # atno 11896 bound_to 969 
   42.6696   -2.6203   38.3600 LP  0  0  0  0  0  0  0  0  0  0  0  0  # atno 11897 bound_to 969 
   38.4278   -3.9409   40.2951 LP  0  0  0  0  0  0  0  0  0  0  0  0  # atno 11898 bound_to 975 
   37.2306   -4.8816   40.8853 LP  0  0  0  0  0  0  0  0  0  0  0  0  # atno 11899 bound_to 975 
   41.9583    4.5085   41.9501 LP  0  0  0  0  0  0  0  0  0  0  0  0  # atno 11904 bound_to 962 
   40.6776    4.4497   42.9616 LP  0  0  0  0  0  0  0  0  0  0  0  0  # atno 11905 bound_to 962 
   34.4757   -4.1321   43.8075 LP  0  0  0  0  0  0  0  0  0  0  0  0  # atno 11912 bound_to 2997
   33.7821   -3.8933   45.2664 LP  0  0  0  0  0  0  0  0  0  0  0  0  # atno 11913 bound_to 2997
   26.7441   -0.3345   41.9654 LP  0  0  0  0  0  0  0  0  0  0  0  0  # atno 11922 bound_to 1497
   28.3165   -0.0353   41.6418 LP  0  0  0  0  0  0  0  0  0  0  0  0  # atno 11923 bound_to 1497
   27.8767   -0.1806   44.8138 LP  0  0  0  0  0  0  0  0  0  0  0  0  # atno 11930 bound_to 1220
   28.3672    0.0895   43.2798 LP  0  0  0  0  0  0  0  0  0  0  0  0  # atno 11931 bound_to 1220

$$$$
****|SGG-4|sdf|1|dock84
  -GOLD-   9 72311513D 1   1.00000     0.00000

 46 48  0  0  0  0  0  0  0  0  1 V2000
   32.7499    1.2480   37.7049 S   0  0  0  0  0  0  0  0  0  0  0  0
   31.6153    2.0839   36.7223 C   0  0  0  0  0  0  0  0  0  0  0  0
   30.4835    1.4515   36.5010 N   0  0  0  0  0  0  0  0  0  0  0  0
   30.5024    0.2294   37.1426 C   0  0  0  0  0  0  0  0  0  0  0  0
   31.6511   -0.0629   37.8532 C   0  0  0  0  0  0  0  0  0  0  0  0
   32.0139   -1.2908   38.6244 C   0  0  0  0  0  0  0  0  0  0  0  0
   33.2544   -0.9186   39.9061 S   0  0  0  0  0  0  0  0  0  0  0  0
   33.9751   -2.5142   40.0643 C   0  0  0  0  0  0  0  0  0  0  0  0
   33.9260   -3.1550   41.2930 N   0  0  0  0  0  0  0  0  0  0  0  0
   34.5003   -4.4112   41.4436 C   0  0  0  0  0  0  0  0  0  0  0  0
   34.4457   -5.0690   42.6744 O   0  0  0  0  0  0  0  0  0  0  0  0
   35.1145   -4.9823   40.4028 N   0  0  0  0  0  0  0  0  0  0  0  0
   35.1272   -4.2971   39.2531 C   0  0  0  0  0  0  0  0  0  0  0  0
   36.0021   -5.0387   37.9012 S   0  0  0  0  0  0  0  0  0  0  0  0
   35.8565   -3.6352   36.7655 C   0  0  0  0  0  0  0  0  0  0  0  0
   36.2737   -2.3352   37.4049 C   0  0  0  0  0  0  0  0  0  0  0  0
   35.5680   -1.1522   37.1552 C   0  0  0  0  0  0  0  0  0  0  0  0
   35.9418    0.0443   37.7752 C   0  0  0  0  0  0  0  0  0  0  0  0
   37.0397    0.0897   38.6458 C   0  0  0  0  0  0  0  0  0  0  0  0
   37.7508   -1.0952   38.8840 C   0  0  0  0  0  0  0  0  0  0  0  0
   37.3750   -2.2922   38.2694 C   0  0  0  0  0  0  0  0  0  0  0  0
   37.9478   -3.1948   38.4732 H   0  0  0  0  0  0  0  0  0  0  0  0
   38.6053   -1.0979   39.5575 H   0  0  0  0  0  0  0  0  0  0  0  0
   37.4533    1.3639   39.3615 C   0  0  0  0  0  0  0  0  0  0  0  0
   36.3327    1.8458   40.2854 C   0  0  0  0  0  0  0  0  0  0  0  0
   35.4303    2.1108   39.7234 H   0  0  0  0  0  0  0  0  0  0  0  0
   36.0586    1.0686   41.0077 H   0  0  0  0  0  0  0  0  0  0  0  0
   36.6496    2.7291   40.8500 H   0  0  0  0  0  0  0  0  0  0  0  0
   37.8851    2.4792   38.4056 C   0  0  0  0  0  0  0  0  0  0  0  0
   37.0387    2.8998   37.8521 H   0  0  0  0  0  0  0  0  0  0  0  0
   38.6160    2.1111   37.6774 H   0  0  0  0  0  0  0  0  0  0  0  0
   38.3506    3.2998   38.9627 H   0  0  0  0  0  0  0  0  0  0  0  0
   38.3263    1.1377   39.9887 H   0  0  0  0  0  0  0  0  0  0  0  0
   35.3573    0.9385   37.5734 H   0  0  0  0  0  0  0  0  0  0  0  0
   34.7143   -1.1532   36.4810 H   0  0  0  0  0  0  0  0  0  0  0  0
   34.8212   -3.5373   36.4165 H   0  0  0  0  0  0  0  0  0  0  0  0
   36.4690   -3.8286   35.8768 H   0  0  0  0  0  0  0  0  0  0  0  0
   34.5876   -3.0926   39.0312 N   0  0  0  0  0  0  0  0  0  0  0  0
   33.4703   -2.7015   42.0724 H   0  0  0  0  0  0  0  0  0  0  0  0
   31.1115   -1.6867   39.1051 H   0  0  0  0  0  0  0  0  0  0  0  0
   32.4092   -2.0669   37.9601 H   0  0  0  0  0  0  0  0  0  0  0  0
   29.6381   -0.4188   37.0568 H   0  0  0  0  0  0  0  0  0  0  0  0
   31.9500    3.4241   36.1696 C   0  0  0  0  0  0  0  0  0  0  0  0
   32.2229    4.1118   36.9766 H   0  0  0  0  0  0  0  0  0  0  0  0
   31.0867    3.8430   35.6430 H   0  0  0  0  0  0  0  0  0  0  0  0
   32.7937    3.3713   35.4742 H   0  0  0  0  0  0  0  0  0  0  0  0
  1  2  1  0  0  0  0
  1  5  1  0  0  0  0
  2  3  2  0  0  0  0
  2 43  1  0  0  0  0
  3  4  1  0  0  0  0
  4  5  2  0  0  0  0
  4 42  1  0  0  0  0
  5  6  1  0  0  0  0
  6  7  1  0  0  0  0
  6 40  1  0  0  0  0
  6 41  1  0  0  0  0
  7  8  1  0  0  0  0
  8  9  1  0  0  0  0
  8 38  2  0  0  0  0
  9 10  1  0  0  0  0
  9 39  1  0  0  0  0
 10 11  2  0  0  0  0
 10 12  1  0  0  0  0
 12 13  2  0  0  0  0
 13 14  1  0  0  0  0
 13 38  1  0  0  0  0
 14 15  1  0  0  0  0
 15 16  1  0  0  0  0
 15 36  1  0  0  0  0
 15 37  1  0  0  0  0
 16 17  1  0  0  0  0
 16 21  2  0  0  0  0
 17 18  2  0  0  0  0
 17 35  1  0  0  0  0
 18 19  1  0  0  0  0
 18 34  1  0  0  0  0
 19 20  2  0  0  0  0
 19 24  1  0  0  0  0
 20 21  1  0  0  0  0
 20 23  1  0  0  0  0
 21 22  1  0  0  0  0
 24 25  1  0  0  0  0
 24 29  1  0  0  0  0
 24 33  1  0  0  0  0
 25 26  1  0  0  0  0
 25 27  1  0  0  0  0
 25 28  1  0  0  0  0
 29 30  1  0  0  0  0
 29 31  1  0  0  0  0
 29 32  1  0  0  0  0
 43 44  1  0  0  0  0
 43 45  1  0  0  0  0
 43 46  1  0  0  0  0
M  END
> <Gold.Goldscore.Fitness>
67.7756

> <Gold.Goldscore.External.HBond>
1.4847

> <Gold.Protein.ActiveResidues>
 GLU87   ILE88   VAL90   ASN91   ALA92   ASP94   ASN95   ARG98   ILE118  ASN120 
 LYS123  GLY124  ILE125  ILE141  PHE142  THR147  SER148  SER149  ASN150  TYR151 
 GLY160  GLY161  ARG162  ASN163  GLY164  TYR165  GLY166  ALA167  LYS168  LEU169 
 THR181  THR215  ILE217  ILE317  GLN376  LYS378  ILE33   TYR34   MG903  

> <Gold.Goldscore.Internal.HBond>
0.0

> <Gold.Goldscore.Internal.Torsion.Weighted>
-4.6232

> <Gold.Protein.RotatedTorsions>
[ 8833 2752 2751 2750 ] final  -92.65 input   60.00 | X-H torsion
[ 6906  969  968  965 ] final -179.89 input   59.99 | X-H torsion
[ 6910  975  974  971 ] final  -12.12 input   60.00 | X-H torsion
[ 6897  962  961  958 ] final   71.11 input   60.00 | X-H torsion
[ 9084 2997 2996 2994 ] final  -38.60 input   60.00 | X-H torsion
[ 7406 1497 1496 1493 ] final  170.76 input   60.00 | X-H torsion
[ 7140 1220 1219 1216 ] final  115.27 input   60.00 | X-H torsion
[ 6926  995  994  992 ] final   25.13 input   60.0

> <Gold.Goldscore.Constraint.Score>
0.0

> <Gold.Id.Protein>
1ZXM|1ZXM_protein|mol2

> <Gold.Protein.RotatedAtoms>
   40.6750    3.3830   41.8637 H   0  0  0  0  0  0  0  0  0  0  0  0  # atno 6897 bound_to 962 
   42.5663   -2.5035   38.2571 H   0  0  0  0  0  0  0  0  0  0  0  0  # atno 6906 bound_to 969 
   38.8111   -4.3840   40.0676 H   0  0  0  0  0  0  0  0  0  0  0  0  # atno 6910 bound_to 975 
   45.8911    1.1244   38.6740 H   0  0  0  0  0  0  0  0  0  0  0  0  # atno 6926 bound_to 995 
   28.0475    0.1168   43.0607 H   0  0  0  0  0  0  0  0  0  0  0  0  # atno 7140 bound_to 1220
   28.2838   -0.9017   41.0

> <Gold.Version>
5.3.0

> <Gold.Goldscore.Internal.Correction>
-0.0166

> <Gold.Goldscore.Internal.Vdw>
-1.3472

> <Gold.Goldscore.Internal.Vdw.Weighted>
-1.3472

> <Gold.Goldscore.External.HBond.Weighted>
1.4847

> <Gold.Goldscore.External.Vdw.Weighted>
72.2447

> <Gold.Goldscore.Internal.HBond.Weighted>
0.0

> <Gold.Goldscore.Hbonds>
donor molecule, donor type, donor heavy atom, donor atom, acceptor molecule, acceptor atom, score
      L1  H     1    27       P1   757  0.74

> <Gold.Goldscore.External.Vdw>
52.5416

> <Gold.Goldscore.Internal.Torsion>
-4.6232

> <Gold.Goldscore.Internal.Correction.Weighted>
-0.0166

> <Gold.Version>
5.3.0

> <Gold.Id.Protein>
1ZXM|1ZXM_protein|mol2

> <Gold.ASP.Fitness>
25.3731

> <Gold.ASP.ASP>
31.3440

> <Gold.ASP.Map>
-156.7200

> <Gold.ASP.DEClash>
1.0592

> <Gold.ASP.DEInternal>
4.9117

> <Gold.ASP.Internal.Correction>
0.1091

> <Gold.Protein.RotatedTorsions>
[ 8924 2752 2751 2750 ] final    0.29 input   60.00 | X-H torsion
[ 6908  969  968  965 ] final  135.14 input   59.99 | X-H torsion
[ 6912  975  974  971 ] final   98.53 input   60.00 | X-H torsion
[ 6899  962  961  958 ] final  120.97 input   60.00 | X-H torsion
[ 9165 2997 2996 2994 ] final   10.68 input   60.00 | X-H torsion
[ 7410 1497 1496 1493 ] final  -24.88 input   60.00 | X-H torsion
[ 7137 1220 1219 1216 ] final -109.29 input   60.00 | X-H torsion
[ 6928  995  994  992 ] final -131.04 input   60.00 | X-H torsion

> <Gold.Protein.ActiveResidues>
 GLU87   ILE88   VAL90   ASN91   ALA92   ASP94   ASN95   ARG98   ILE118  ASN120 
 LYS123  GLY124  ILE125  ILE141  PHE142  THR147  SER148  SER149  ASN150  TYR151 
 GLY160  GLY161  ARG162  ASN163  GLY164  TYR165  GLY166  ALA167  LYS168  LEU169 
 THR181  THR215  ILE217  ILE317  GLN376  LYS378  ILE33   TYR34   MG903  

> <Gold.Protein.RotatedAtoms>
   40.3410    3.7215   42.4936 H   0  0  0  0  0  0  0  0  0  0  0  0  # atno 6899 bound_to 962 
   41.9666   -2.1456   38.0986 H   0  0  0  0  0  0  0  0  0  0  0  0  # atno 6908 bound_to 969 
   38.1184   -5.7268   40.3650 H   0  0  0  0  0  0  0  0  0  0  0  0  # atno 6912 bound_to 975 
   46.5906    1.5836   40.3038 H   0  0  0  0  0  0  0  0  0  0  0  0  # atno 6928 bound_to 995 
   28.0067   -0.1665   44.7694 H   0  0  0  0  0  0  0  0  0  0  0  0  # atno 7137 bound_to 1220
   26.9793   -0.0583   42.0721 H   0  0  0  0  0  0  0  0  0  0  0  0  # atno 7410 bound_to 1497
   44.0568   -0.5003   29.3607 H   0  0  0  0  0  0  0  0  0  0  0  0  # atno 8924 bound_to 2752
   43.4014    0.6997   30.2977 H   0  0  0  0  0  0  0  0  0  0  0  0  # atno 8925 bound_to 2752
   43.5562   -0.8348   30.9049 H   0  0  0  0  0  0  0  0  0  0  0  0  # atno 8926 bound_to 2752
   34.5295   -4.2405   43.7972 H   0  0  0  0  0  0  0  0  0  0  0  0  # atno 9165 bound_to 2997
   41.0731   -2.6514   39.3611 LP  0  0  0  0  0  0  0  0  0  0  0  0  # atno 11896 bound_to 969 
   42.6123   -3.1684   39.1873 LP  0  0  0  0  0  0  0  0  0  0  0  0  # atno 11897 bound_to 969 
   38.7490   -4.2493   40.1058 LP  0  0  0  0  0  0  0  0  0  0  0  0  # atno 11898 bound_to 975 
   37.3130   -4.4051   40.8674 LP  0  0  0  0  0  0  0  0  0  0  0  0  # atno 11899 bound_to 975 
   41.6069    3.7621   41.4719 LP  0  0  0  0  0  0  0  0  0  0  0  0  # atno 11904 bound_to 962 
   41.4990    4.8484   42.6864 LP  0  0  0  0  0  0  0  0  0  0  0  0  # atno 11905 bound_to 962 
   33.7823   -3.8104   45.1774 LP  0  0  0  0  0  0  0  0  0  0  0  0  # atno 11912 bound_to 2997
   34.4727   -5.2843   45.0444 LP  0  0  0  0  0  0  0  0  0  0  0  0  # atno 11913 bound_to 2997
   28.4455   -0.3084   41.4121 LP  0  0  0  0  0  0  0  0  0  0  0  0  # atno 11922 bound_to 1497
   27.2234   -1.3491   41.1118 LP  0  0  0  0  0  0  0  0  0  0  0  0  # atno 11923 bound_to 1497
   28.2665    0.1015   43.1856 LP  0  0  0  0  0  0  0  0  0  0  0  0  # atno 11930 bound_to 1220
   26.7421   -0.0449   43.7526 LP  0  0  0  0  0  0  0  0  0  0  0  0  # atno 11931 bound_to 1220

$$$$
****|SGG-4|sdf|1|dock92
  -GOLD-   9 72311513D 1   1.00000     0.00000

 46 48  0  0  0  0  0  0  0  0  1 V2000
   39.8788    0.2990   38.2224 S   0  0  0  0  0  0  0  0  0  0  0  0
   39.5561    0.0824   36.5490 C   0  0  0  0  0  0  0  0  0  0  0  0
   38.4566    0.6521   36.1058 N   0  0  0  0  0  0  0  0  0  0  0  0
   37.8211    1.3030   37.1442 C   0  0  0  0  0  0  0  0  0  0  0  0
   38.4428    1.2275   38.3761 C   0  0  0  0  0  0  0  0  0  0  0  0
   38.0183    1.7794   39.6987 C   0  0  0  0  0  0  0  0  0  0  0  0
   36.2475    1.4736   40.0000 S   0  0  0  0  0  0  0  0  0  0  0  0
   36.2905   -0.2780   40.1439 C   0  0  0  0  0  0  0  0  0  0  0  0
   37.4090   -0.9621   39.6928 N   0  0  0  0  0  0  0  0  0  0  0  0
   37.4587   -2.3475   39.7853 C   0  0  0  0  0  0  0  0  0  0  0  0
   38.5860   -3.0441   39.3439 O   0  0  0  0  0  0  0  0  0  0  0  0
   36.4146   -3.0105   40.2920 N   0  0  0  0  0  0  0  0  0  0  0  0
   35.3689   -2.2801   40.6976 C   0  0  0  0  0  0  0  0  0  0  0  0
   33.9665   -3.1780   41.3060 S   0  0  0  0  0  0  0  0  0  0  0  0
   33.2434   -3.5534   39.6883 C   0  0  0  0  0  0  0  0  0  0  0  0
   32.5428   -2.3632   39.0838 C   0  0  0  0  0  0  0  0  0  0  0  0
   31.3825   -1.8397   39.6663 C   0  0  0  0  0  0  0  0  0  0  0  0
   30.7546   -0.7169   39.1178 C   0  0  0  0  0  0  0  0  0  0  0  0
   31.2622   -0.1016   37.9648 C   0  0  0  0  0  0  0  0  0  0  0  0
   32.4180   -0.6364   37.3780 C   0  0  0  0  0  0  0  0  0  0  0  0
   33.0492   -1.7548   37.9281 C   0  0  0  0  0  0  0  0  0  0  0  0
   33.9438   -2.1473   37.4488 H   0  0  0  0  0  0  0  0  0  0  0  0
   32.8423   -0.1817   36.4852 H   0  0  0  0  0  0  0  0  0  0  0  0
   30.6252    1.1382   37.3616 C   0  0  0  0  0  0  0  0  0  0  0  0
   29.7952    0.7676   36.1306 C   0  0  0  0  0  0  0  0  0  0  0  0
   30.4183    0.3469   35.3337 H   0  0  0  0  0  0  0  0  0  0  0  0
   29.0305    0.0241   36.3827 H   0  0  0  0  0  0  0  0  0  0  0  0
   29.2839    1.6489   35.7290 H   0  0  0  0  0  0  0  0  0  0  0  0
   31.6403    2.2328   37.0215 C   0  0  0  0  0  0  0  0  0  0  0  0
   32.2639    1.9653   36.1617 H   0  0  0  0  0  0  0  0  0  0  0  0
   32.3027    2.4316   37.8709 H   0  0  0  0  0  0  0  0  0  0  0  0
   31.1246    3.1668   36.7724 H   0  0  0  0  0  0  0  0  0  0  0  0
   29.9415    1.5695   38.1053 H   0  0  0  0  0  0  0  0  0  0  0  0
   29.8674   -0.3259   39.6096 H   0  0  0  0  0  0  0  0  0  0  0  0
   30.9609   -2.2970   40.5587 H   0  0  0  0  0  0  0  0  0  0  0  0
   32.5227   -4.3755   39.7781 H   0  0  0  0  0  0  0  0  0  0  0  0
   34.0347   -3.9036   39.0150 H   0  0  0  0  0  0  0  0  0  0  0  0
   35.2548   -0.9474   40.6501 N   0  0  0  0  0  0  0  0  0  0  0  0
   38.1827   -0.4452   39.2991 H   0  0  0  0  0  0  0  0  0  0  0  0
   38.6039    1.2952   40.4891 H   0  0  0  0  0  0  0  0  0  0  0  0
   38.2083    2.8569   39.7516 H   0  0  0  0  0  0  0  0  0  0  0  0
   36.8928    1.8248   36.9430 H   0  0  0  0  0  0  0  0  0  0  0  0
   40.4831   -0.7211   35.7072 C   0  0  0  0  0  0  0  0  0  0  0  0
   41.5009   -0.3232   35.7748 H   0  0  0  0  0  0  0  0  0  0  0  0
   40.1719   -0.6828   34.6585 H   0  0  0  0  0  0  0  0  0  0  0  0
   40.5101   -1.7675   36.0274 H   0  0  0  0  0  0  0  0  0  0  0  0
  1  2  1  0  0  0  0
  1  5  1  0  0  0  0
  2  3  2  0  0  0  0
  2 43  1  0  0  0  0
  3  4  1  0  0  0  0
  4  5  2  0  0  0  0
  4 42  1  0  0  0  0
  5  6  1  0  0  0  0
  6  7  1  0  0  0  0
  6 40  1  0  0  0  0
  6 41  1  0  0  0  0
  7  8  1  0  0  0  0
  8  9  1  0  0  0  0
  8 38  2  0  0  0  0
  9 10  1  0  0  0  0
  9 39  1  0  0  0  0
 10 11  2  0  0  0  0
 10 12  1  0  0  0  0
 12 13  2  0  0  0  0
 13 14  1  0  0  0  0
 13 38  1  0  0  0  0
 14 15  1  0  0  0  0
 15 16  1  0  0  0  0
 15 36  1  0  0  0  0
 15 37  1  0  0  0  0
 16 17  1  0  0  0  0
 16 21  2  0  0  0  0
 17 18  2  0  0  0  0
 17 35  1  0  0  0  0
 18 19  1  0  0  0  0
 18 34  1  0  0  0  0
 19 20  2  0  0  0  0
 19 24  1  0  0  0  0
 20 21  1  0  0  0  0
 20 23  1  0  0  0  0
 21 22  1  0  0  0  0
 24 25  1  0  0  0  0
 24 29  1  0  0  0  0
 24 33  1  0  0  0  0
 25 26  1  0  0  0  0
 25 27  1  0  0  0  0
 25 28  1  0  0  0  0
 29 30  1  0  0  0  0
 29 31  1  0  0  0  0
 29 32  1  0  0  0  0
 43 44  1  0  0  0  0
 43 45  1  0  0  0  0
 43 46  1  0  0  0  0
M  END
> <Gold.Goldscore.Fitness>
67.7756

> <Gold.Goldscore.External.HBond>
1.4847

> <Gold.Protein.ActiveResidues>
 GLU87   ILE88   VAL90   ASN91   ALA92   ASP94   ASN95   ARG98   ILE118  ASN120 
 LYS123  GLY124  ILE125  ILE141  PHE142  THR147  SER148  SER149  ASN150  TYR151 
 GLY160  GLY161  ARG162  ASN163  GLY164  TYR165  GLY166  ALA167  LYS168  LEU169 
 THR181  THR215  ILE217  ILE317  GLN376  LYS378  ILE33   TYR34   MG903  

> <Gold.Goldscore.Internal.HBond>
0.0

> <Gold.Goldscore.Internal.Torsion.Weighted>
-4.6232

> <Gold.Protein.RotatedTorsions>
[ 8833 2752 2751 2750 ] final  -92.65 input   60.00 | X-H torsion
[ 6906  969  968  965 ] final -179.89 input   59.99 | X-H torsion
[ 6910  975  974  971 ] final  -12.12 input   60.00 | X-H torsion
[ 6897  962  961  958 ] final   71.11 input   60.00 | X-H torsion
[ 9084 2997 2996 2994 ] final  -38.60 input   60.00 | X-H torsion
[ 7406 1497 1496 1493 ] final  170.76 input   60.00 | X-H torsion
[ 7140 1220 1219 1216 ] final  115.27 input   60.00 | X-H torsion
[ 6926  995  994  992 ] final   25.13 input   60.0

> <Gold.Goldscore.Constraint.Score>
0.0

> <Gold.Id.Protein>
1ZXM|1ZXM_protein|mol2

> <Gold.Protein.RotatedAtoms>
   40.6750    3.3830   41.8637 H   0  0  0  0  0  0  0  0  0  0  0  0  # atno 6897 bound_to 962 
   42.5663   -2.5035   38.2571 H   0  0  0  0  0  0  0  0  0  0  0  0  # atno 6906 bound_to 969 
   38.8111   -4.3840   40.0676 H   0  0  0  0  0  0  0  0  0  0  0  0  # atno 6910 bound_to 975 
   45.8911    1.1244   38.6740 H   0  0  0  0  0  0  0  0  0  0  0  0  # atno 6926 bound_to 995 
   28.0475    0.1168   43.0607 H   0  0  0  0  0  0  0  0  0  0  0  0  # atno 7140 bound_to 1220
   28.2838   -0.9017   41.0

> <Gold.Version>
5.3.0

> <Gold.Goldscore.Internal.Correction>
-0.0166

> <Gold.Goldscore.Internal.Vdw>
-1.3472

> <Gold.Goldscore.Internal.Vdw.Weighted>
-1.3472

> <Gold.Goldscore.External.HBond.Weighted>
1.4847

> <Gold.Goldscore.External.Vdw.Weighted>
72.2447

> <Gold.Goldscore.Internal.HBond.Weighted>
0.0

> <Gold.Goldscore.Hbonds>
donor molecule, donor type, donor heavy atom, donor atom, acceptor molecule, acceptor atom, score
      L1  H     1    27       P1   757  0.74

> <Gold.Goldscore.External.Vdw>
52.5416

> <Gold.Goldscore.Internal.Torsion>
-4.6232

> <Gold.Goldscore.Internal.Correction.Weighted>
-0.0166

> <Gold.Version>
5.3.0

> <Gold.Id.Protein>
1ZXM|1ZXM_protein|mol2

> <Gold.ASP.Fitness>
25.3616

> <Gold.ASP.ASP>
31.2580

> <Gold.ASP.Map>
-156.2900

> <Gold.ASP.DEClash>
3.3323

> <Gold.ASP.DEInternal>
2.5641

> <Gold.ASP.Internal.Correction>
0.1072

> <Gold.Protein.RotatedTorsions>
[ 8924 2752 2751 2750 ] final   22.65 input   60.00 | X-H torsion
[ 6908  969  968  965 ] final  132.53 input   59.99 | X-H torsion
[ 6912  975  974  971 ] final  112.44 input   60.00 | X-H torsion
[ 6899  962  961  958 ] final -160.89 input   60.00 | X-H torsion
[ 9165 2997 2996 2994 ] final  164.89 input   60.00 | X-H torsion
[ 7410 1497 1496 1493 ] final -106.65 input   60.00 | X-H torsion
[ 7137 1220 1219 1216 ] final -170.44 input   60.00 | X-H torsion
[ 6928  995  994  992 ] final -144.32 input   60.00 | X-H torsion

> <Gold.Protein.ActiveResidues>
 GLU87   ILE88   VAL90   ASN91   ALA92   ASP94   ASN95   ARG98   ILE118  ASN120 
 LYS123  GLY124  ILE125  ILE141  PHE142  THR147  SER148  SER149  ASN150  TYR151 
 GLY160  GLY161  ARG162  ASN163  GLY164  TYR165  GLY166  ALA167  LYS168  LEU169 
 THR181  THR215  ILE217  ILE317  GLN376  LYS378  ILE33   TYR34   MG903  

> <Gold.Protein.RotatedAtoms>
   40.9215    4.6386   42.9567 H   0  0  0  0  0  0  0  0  0  0  0  0  # atno 6899 bound_to 962 
   41.9263   -2.1326   38.1040 H   0  0  0  0  0  0  0  0  0  0  0  0  # atno 6908 bound_to 969 
   37.9188   -5.7210   40.4724 H   0  0  0  0  0  0  0  0  0  0  0  0  # atno 6912 bound_to 975 
   46.3990    1.6047   40.4025 H   0  0  0  0  0  0  0  0  0  0  0  0  # atno 6928 bound_to 995 
   28.5992   -0.0252   44.0373 H   0  0  0  0  0  0  0  0  0  0  0  0  # atno 7137 bound_to 1220
   28.1597    0.0938   41.7797 H   0  0  0  0  0  0  0  0  0  0  0  0  # atno 7410 bound_to 1497
   43.9938   -0.1416   29.2895 H   0  0  0  0  0  0  0  0  0  0  0  0  # atno 8924 bound_to 2752
   43.3118    0.5577   30.6286 H   0  0  0  0  0  0  0  0  0  0  0  0  # atno 8925 bound_to 2752
   43.7088   -1.0515   30.6452 H   0  0  0  0  0  0  0  0  0  0  0  0  # atno 8926 bound_to 2752
   34.1962   -4.9949   45.4255 H   0  0  0  0  0  0  0  0  0  0  0  0  # atno 9165 bound_to 2997
   41.0910   -2.6784   39.3895 LP  0  0  0  0  0  0  0  0  0  0  0  0  # atno 11896 bound_to 969 
   42.6351   -3.1545   39.1535 LP  0  0  0  0  0  0  0  0  0  0  0  0  # atno 11897 bound_to 969 
   38.8405   -4.4496   40.0456 LP  0  0  0  0  0  0  0  0  0  0  0  0  # atno 11898 bound_to 975 
   37.4225   -4.2106   40.8194 LP  0  0  0  0  0  0  0  0  0  0  0  0  # atno 11899 bound_to 975 
   40.5831    3.4012   41.9557 LP  0  0  0  0  0  0  0  0  0  0  0  0  # atno 11904 bound_to 962 
   41.9382    4.2855   41.7362 LP  0  0  0  0  0  0  0  0  0  0  0  0  # atno 11905 bound_to 962 
   34.7070   -4.7538   43.8994 LP  0  0  0  0  0  0  0  0  0  0  0  0  # atno 11912 bound_to 2997
   33.8836   -3.5812   44.6827 LP  0  0  0  0  0  0  0  0  0  0  0  0  # atno 11913 bound_to 2997
   27.8181   -1.2724   40.9645 LP  0  0  0  0  0  0  0  0  0  0  0  0  # atno 11922 bound_to 1497
   26.6620   -0.5382   41.8538 LP  0  0  0  0  0  0  0  0  0  0  0  0  # atno 11923 bound_to 1497
   27.3184    0.0926   43.0405 LP  0  0  0  0  0  0  0  0  0  0  0  0  # atno 11930 bound_to 1220
   27.0935   -0.1783   44.6351 LP  0  0  0  0  0  0  0  0  0  0  0  0  # atno 11931 bound_to 1220

$$$$
****|SGG-4|sdf|1|dock52
  -GOLD-   9 72311483D 1   1.00000     0.00000

 46 48  0  0  0  0  0  0  0  0  1 V2000
   38.5429   -0.7127   37.4493 S   0  0  0  0  0  0  0  0  0  0  0  0
   39.6798    0.4213   36.8384 C   0  0  0  0  0  0  0  0  0  0  0  0
   39.6523    1.6099   37.4008 N   0  0  0  0  0  0  0  0  0  0  0  0
   38.6761    1.6384   38.3765 C   0  0  0  0  0  0  0  0  0  0  0  0
   37.9644    0.4672   38.5543 C   0  0  0  0  0  0  0  0  0  0  0  0
   36.8343    0.1650   39.4846 C   0  0  0  0  0  0  0  0  0  0  0  0
   37.3959   -0.8438   40.8942 S   0  0  0  0  0  0  0  0  0  0  0  0
   36.2510   -2.1708   40.7576 C   0  0  0  0  0  0  0  0  0  0  0  0
   35.2160   -2.2626   41.6756 N   0  0  0  0  0  0  0  0  0  0  0  0
   34.3071   -3.3104   41.5938 C   0  0  0  0  0  0  0  0  0  0  0  0
   33.2548   -3.4046   42.5073 O   0  0  0  0  0  0  0  0  0  0  0  0
   34.4529   -4.2340   40.6387 N   0  0  0  0  0  0  0  0  0  0  0  0
   35.4816   -4.0807   39.7961 C   0  0  0  0  0  0  0  0  0  0  0  0
   35.6995   -5.3489   38.5766 S   0  0  0  0  0  0  0  0  0  0  0  0
   34.0918   -5.1382   37.7693 C   0  0  0  0  0  0  0  0  0  0  0  0
   33.5936   -3.7175   37.8469 C   0  0  0  0  0  0  0  0  0  0  0  0
   32.3875   -3.4126   38.4888 C   0  0  0  0  0  0  0  0  0  0  0  0
   31.9460   -2.0891   38.5837 C   0  0  0  0  0  0  0  0  0  0  0  0
   32.6912   -1.0414   38.0246 C   0  0  0  0  0  0  0  0  0  0  0  0
   33.8928   -1.3526   37.3723 C   0  0  0  0  0  0  0  0  0  0  0  0
   34.3376   -2.6739   37.2816 C   0  0  0  0  0  0  0  0  0  0  0  0
   35.2737   -2.8835   36.7677 H   0  0  0  0  0  0  0  0  0  0  0  0
   34.4991   -0.5644   36.9308 H   0  0  0  0  0  0  0  0  0  0  0  0
   32.2585    0.4101   38.1376 C   0  0  0  0  0  0  0  0  0  0  0  0
   30.8978    0.6158   37.4686 C   0  0  0  0  0  0  0  0  0  0  0  0
   30.9401    0.4106   36.3932 H   0  0  0  0  0  0  0  0  0  0  0  0
   30.1422   -0.0476   37.9045 H   0  0  0  0  0  0  0  0  0  0  0  0
   30.5531    1.6468   37.6016 H   0  0  0  0  0  0  0  0  0  0  0  0
   33.2915    1.3923   37.5787 C   0  0  0  0  0  0  0  0  0  0  0  0
   33.3523    1.3507   36.4859 H   0  0  0  0  0  0  0  0  0  0  0  0
   34.2889    1.1843   37.9811 H   0  0  0  0  0  0  0  0  0  0  0  0
   33.0271    2.4199   37.8518 H   0  0  0  0  0  0  0  0  0  0  0  0
   32.1446    0.6526   39.2029 H   0  0  0  0  0  0  0  0  0  0  0  0
   31.0148   -1.8885   39.1079 H   0  0  0  0  0  0  0  0  0  0  0  0
   31.7837   -4.2034   38.9289 H   0  0  0  0  0  0  0  0  0  0  0  0
   33.3469   -5.7963   38.2331 H   0  0  0  0  0  0  0  0  0  0  0  0
   34.1741   -5.4492   36.7210 H   0  0  0  0  0  0  0  0  0  0  0  0
   36.3871   -3.0952   39.8069 N   0  0  0  0  0  0  0  0  0  0  0  0
   35.1302   -1.5633   42.3998 H   0  0  0  0  0  0  0  0  0  0  0  0
   36.4241    1.1091   39.8622 H   0  0  0  0  0  0  0  0  0  0  0  0
   36.0305   -0.3663   38.9635 H   0  0  0  0  0  0  0  0  0  0  0  0
   38.5239    2.5539   38.9362 H   0  0  0  0  0  0  0  0  0  0  0  0
   40.5985    0.0366   35.7332 C   0  0  0  0  0  0  0  0  0  0  0  0
   41.1712   -0.8555   36.0067 H   0  0  0  0  0  0  0  0  0  0  0  0
   41.3065    0.8463   35.5301 H   0  0  0  0  0  0  0  0  0  0  0  0
   40.0479   -0.1870   34.8139 H   0  0  0  0  0  0  0  0  0  0  0  0
  1  2  1  0  0  0  0
  1  5  1  0  0  0  0
  2  3  2  0  0  0  0
  2 43  1  0  0  0  0
  3  4  1  0  0  0  0
  4  5  2  0  0  0  0
  4 42  1  0  0  0  0
  5  6  1  0  0  0  0
  6  7  1  0  0  0  0
  6 40  1  0  0  0  0
  6 41  1  0  0  0  0
  7  8  1  0  0  0  0
  8  9  1  0  0  0  0
  8 38  2  0  0  0  0
  9 10  1  0  0  0  0
  9 39  1  0  0  0  0
 10 11  2  0  0  0  0
 10 12  1  0  0  0  0
 12 13  2  0  0  0  0
 13 14  1  0  0  0  0
 13 38  1  0  0  0  0
 14 15  1  0  0  0  0
 15 16  1  0  0  0  0
 15 36  1  0  0  0  0
 15 37  1  0  0  0  0
 16 17  1  0  0  0  0
 16 21  2  0  0  0  0
 17 18  2  0  0  0  0
 17 35  1  0  0  0  0
 18 19  1  0  0  0  0
 18 34  1  0  0  0  0
 19 20  2  0  0  0  0
 19 24  1  0  0  0  0
 20 21  1  0  0  0  0
 20 23  1  0  0  0  0
 21 22  1  0  0  0  0
 24 25  1  0  0  0  0
 24 29  1  0  0  0  0
 24 33  1  0  0  0  0
 25 26  1  0  0  0  0
 25 27  1  0  0  0  0
 25 28  1  0  0  0  0
 29 30  1  0  0  0  0
 29 31  1  0  0  0  0
 29 32  1  0  0  0  0
 43 44  1  0  0  0  0
 43 45  1  0  0  0  0
 43 46  1  0  0  0  0
M  END
> <Gold.Goldscore.Fitness>
67.7756

> <Gold.Goldscore.External.HBond>
1.4847

> <Gold.Protein.ActiveResidues>
 GLU87   ILE88   VAL90   ASN91   ALA92   ASP94   ASN95   ARG98   ILE118  ASN120 
 LYS123  GLY124  ILE125  ILE141  PHE142  THR147  SER148  SER149  ASN150  TYR151 
 GLY160  GLY161  ARG162  ASN163  GLY164  TYR165  GLY166  ALA167  LYS168  LEU169 
 THR181  THR215  ILE217  ILE317  GLN376  LYS378  ILE33   TYR34   MG903  

> <Gold.Goldscore.Internal.HBond>
0.0

> <Gold.Goldscore.Internal.Torsion.Weighted>
-4.6232

> <Gold.Protein.RotatedTorsions>
[ 8833 2752 2751 2750 ] final  -92.65 input   60.00 | X-H torsion
[ 6906  969  968  965 ] final -179.89 input   59.99 | X-H torsion
[ 6910  975  974  971 ] final  -12.12 input   60.00 | X-H torsion
[ 6897  962  961  958 ] final   71.11 input   60.00 | X-H torsion
[ 9084 2997 2996 2994 ] final  -38.60 input   60.00 | X-H torsion
[ 7406 1497 1496 1493 ] final  170.76 input   60.00 | X-H torsion
[ 7140 1220 1219 1216 ] final  115.27 input   60.00 | X-H torsion
[ 6926  995  994  992 ] final   25.13 input   60.0

> <Gold.Goldscore.Constraint.Score>
0.0

> <Gold.Id.Protein>
1ZXM|1ZXM_protein|mol2

> <Gold.Protein.RotatedAtoms>
   40.6750    3.3830   41.8637 H   0  0  0  0  0  0  0  0  0  0  0  0  # atno 6897 bound_to 962 
   42.5663   -2.5035   38.2571 H   0  0  0  0  0  0  0  0  0  0  0  0  # atno 6906 bound_to 969 
   38.8111   -4.3840   40.0676 H   0  0  0  0  0  0  0  0  0  0  0  0  # atno 6910 bound_to 975 
   45.8911    1.1244   38.6740 H   0  0  0  0  0  0  0  0  0  0  0  0  # atno 6926 bound_to 995 
   28.0475    0.1168   43.0607 H   0  0  0  0  0  0  0  0  0  0  0  0  # atno 7140 bound_to 1220
   28.2838   -0.9017   41.0

> <Gold.Version>
5.3.0

> <Gold.Goldscore.Internal.Correction>
-0.0166

> <Gold.Goldscore.Internal.Vdw>
-1.3472

> <Gold.Goldscore.Internal.Vdw.Weighted>
-1.3472

> <Gold.Goldscore.External.HBond.Weighted>
1.4847

> <Gold.Goldscore.External.Vdw.Weighted>
72.2447

> <Gold.Goldscore.Internal.HBond.Weighted>
0.0

> <Gold.Goldscore.Hbonds>
donor molecule, donor type, donor heavy atom, donor atom, acceptor molecule, acceptor atom, score
      L1  H     1    27       P1   757  0.74

> <Gold.Goldscore.External.Vdw>
52.5416

> <Gold.Goldscore.Internal.Torsion>
-4.6232

> <Gold.Goldscore.Internal.Correction.Weighted>
-0.0166

> <Gold.Version>
5.3.0

> <Gold.Id.Protein>
1ZXM|1ZXM_protein|mol2

> <Gold.ASP.Fitness>
25.2440

> <Gold.ASP.ASP>
29.2920

> <Gold.ASP.Map>
-146.4600

> <Gold.ASP.DEClash>
1.4967

> <Gold.ASP.DEInternal>
2.5514

> <Gold.ASP.Internal.Correction>
0.1091

> <Gold.Protein.RotatedTorsions>
[ 8924 2752 2751 2750 ] final   -1.01 input   60.00 | X-H torsion
[ 6908  969  968  965 ] final -156.36 input   59.99 | X-H torsion
[ 6912  975  974  971 ] final  118.26 input   60.00 | X-H torsion
[ 6899  962  961  958 ] final -150.44 input   60.00 | X-H torsion
[ 9165 2997 2996 2994 ] final  103.01 input   60.00 | X-H torsion
[ 7410 1497 1496 1493 ] final   99.20 input   60.00 | X-H torsion
[ 7137 1220 1219 1216 ] final  -14.83 input   60.00 | X-H torsion
[ 6928  995  994  992 ] final  151.20 input   60.00 | X-H torsion

> <Gold.Protein.ActiveResidues>
 GLU87   ILE88   VAL90   ASN91   ALA92   ASP94   ASN95   ARG98   ILE118  ASN120 
 LYS123  GLY124  ILE125  ILE141  PHE142  THR147  SER148  SER149  ASN150  TYR151 
 GLY160  GLY161  ARG162  ASN163  GLY164  TYR165  GLY166  ALA167  LYS168  LEU169 
 THR181  THR215  ILE217  ILE317  GLN376  LYS378  ILE33   TYR34   MG903  

> <Gold.Protein.RotatedAtoms>
   41.0662    4.7218   42.9217 H   0  0  0  0  0  0  0  0  0  0  0  0  # atno 6899 bound_to 962 
   42.7358   -2.7426   38.5017 H   0  0  0  0  0  0  0  0  0  0  0  0  # atno 6908 bound_to 969 
   37.8371   -5.7023   40.5173 H   0  0  0  0  0  0  0  0  0  0  0  0  # atno 6912 bound_to 975 
   45.4194    1.5284   40.2230 H   0  0  0  0  0  0  0  0  0  0  0  0  # atno 6928 bound_to 995 
   26.7754   -0.1089   44.1618 H   0  0  0  0  0  0  0  0  0  0  0  0  # atno 7137 bound_to 1220
   27.2858   -1.3507   41.0869 H   0  0  0  0  0  0  0  0  0  0  0  0  # atno 7410 bound_to 1497
   44.0587   -0.5203   29.3688 H   0  0  0  0  0  0  0  0  0  0  0  0  # atno 8924 bound_to 2752
   43.4081    0.7038   30.2775 H   0  0  0  0  0  0  0  0  0  0  0  0  # atno 8925 bound_to 2752
   43.5477   -0.8190   30.9170 H   0  0  0  0  0  0  0  0  0  0  0  0  # atno 8926 bound_to 2752
   34.6481   -5.2966   44.6308 H   0  0  0  0  0  0  0  0  0  0  0  0  # atno 9165 bound_to 2997
   41.2398   -2.1031   38.4680 LP  0  0  0  0  0  0  0  0  0  0  0  0  # atno 11896 bound_to 969 
   41.6710   -3.1155   39.6745 LP  0  0  0  0  0  0  0  0  0  0  0  0  # atno 11897 bound_to 969 
   38.8654   -4.5402   40.0273 LP  0  0  0  0  0  0  0  0  0  0  0  0  # atno 11898 bound_to 975 
   37.4799   -4.1388   40.7926 LP  0  0  0  0  0  0  0  0  0  0  0  0  # atno 11899 bound_to 975 
   40.4857    3.4505   42.0882 LP  0  0  0  0  0  0  0  0  0  0  0  0  # atno 11904 bound_to 962 
   41.8899    4.1525   41.6390 LP  0  0  0  0  0  0  0  0  0  0  0  0  # atno 11905 bound_to 962 
   34.3135   -3.8682   43.9267 LP  0  0  0  0  0  0  0  0  0  0  0  0  # atno 11912 bound_to 2997
   33.8220   -4.1630   45.4557 LP  0  0  0  0  0  0  0  0  0  0  0  0  # atno 11913 bound_to 2997
   26.9272   -0.0999   42.0641 LP  0  0  0  0  0  0  0  0  0  0  0  0  # atno 11922 bound_to 1497
   28.4331   -0.2560   41.4520 LP  0  0  0  0  0  0  0  0  0  0  0  0  # atno 11923 bound_to 1497
   28.3558   -0.1203   44.5489 LP  0  0  0  0  0  0  0  0  0  0  0  0  # atno 11930 bound_to 1220
   27.8930    0.1190   43.0013 LP  0  0  0  0  0  0  0  0  0  0  0  0  # atno 11931 bound_to 1220

$$$$
****|SGG-4|sdf|1|dock75
  -GOLD-   9 72311503D 1   1.00000     0.00000

 46 48  0  0  0  0  0  0  0  0  1 V2000
   36.6526    0.1611   37.5294 S   0  0  0  0  0  0  0  0  0  0  0  0
   37.4303    0.5523   39.0105 C   0  0  0  0  0  0  0  0  0  0  0  0
   38.2084   -0.3850   39.5065 N   0  0  0  0  0  0  0  0  0  0  0  0
   38.1972   -1.4854   38.6731 C   0  0  0  0  0  0  0  0  0  0  0  0
   37.4101   -1.3796   37.5421 C   0  0  0  0  0  0  0  0  0  0  0  0
   37.1463   -2.3784   36.4619 C   0  0  0  0  0  0  0  0  0  0  0  0
   35.3641   -2.7263   36.3102 S   0  0  0  0  0  0  0  0  0  0  0  0
   35.1105   -3.5427   37.8463 C   0  0  0  0  0  0  0  0  0  0  0  0
   35.7375   -4.7585   38.0728 N   0  0  0  0  0  0  0  0  0  0  0  0
   35.5408   -5.4269   39.2749 C   0  0  0  0  0  0  0  0  0  0  0  0
   36.1773   -6.6465   39.5164 O   0  0  0  0  0  0  0  0  0  0  0  0
   34.7296   -4.8981   40.1962 N   0  0  0  0  0  0  0  0  0  0  0  0
   34.1546   -3.7263   39.8998 C   0  0  0  0  0  0  0  0  0  0  0  0
   33.0309   -3.0707   41.1041 S   0  0  0  0  0  0  0  0  0  0  0  0
   33.5187   -1.3361   40.9199 C   0  0  0  0  0  0  0  0  0  0  0  0
   32.7216   -0.6268   39.8548 C   0  0  0  0  0  0  0  0  0  0  0  0
   31.3428   -0.8348   39.7306 C   0  0  0  0  0  0  0  0  0  0  0  0
   30.6041   -0.1507   38.7600 C   0  0  0  0  0  0  0  0  0  0  0  0
   31.2289    0.7443   37.8802 C   0  0  0  0  0  0  0  0  0  0  0  0
   32.6121    0.9408   38.0007 C   0  0  0  0  0  0  0  0  0  0  0  0
   33.3503    0.2621   38.9734 C   0  0  0  0  0  0  0  0  0  0  0  0
   34.4226    0.4348   39.0409 H   0  0  0  0  0  0  0  0  0  0  0  0
   33.1292    1.6315   37.3379 H   0  0  0  0  0  0  0  0  0  0  0  0
   30.4527    1.5285   36.8366 C   0  0  0  0  0  0  0  0  0  0  0  0
   29.7517    0.5767   35.8649 C   0  0  0  0  0  0  0  0  0  0  0  0
   30.4706   -0.0248   35.2977 H   0  0  0  0  0  0  0  0  0  0  0  0
   29.0901   -0.1134   36.4007 H   0  0  0  0  0  0  0  0  0  0  0  0
   29.1407    1.1359   35.1484 H   0  0  0  0  0  0  0  0  0  0  0  0
   31.3158    2.5397   36.0771 C   0  0  0  0  0  0  0  0  0  0  0  0
   32.0164    2.0520   35.3910 H   0  0  0  0  0  0  0  0  0  0  0  0
   31.8963    3.1588   36.7697 H   0  0  0  0  0  0  0  0  0  0  0  0
   30.6846    3.2066   35.4794 H   0  0  0  0  0  0  0  0  0  0  0  0
   29.6751    2.1092   37.3513 H   0  0  0  0  0  0  0  0  0  0  0  0
   29.5318   -0.3221   38.7070 H   0  0  0  0  0  0  0  0  0  0  0  0
   30.8291   -1.5263   40.3949 H   0  0  0  0  0  0  0  0  0  0  0  0
   34.5832   -1.2680   40.6641 H   0  0  0  0  0  0  0  0  0  0  0  0
   33.3952   -0.8253   41.8822 H   0  0  0  0  0  0  0  0  0  0  0  0
   34.3051   -3.0216   38.7719 N   0  0  0  0  0  0  0  0  0  0  0  0
   36.3356   -5.1501   37.3589 H   0  0  0  0  0  0  0  0  0  0  0  0
   37.5140   -1.9765   35.5104 H   0  0  0  0  0  0  0  0  0  0  0  0
   37.6773   -3.3161   36.6586 H   0  0  0  0  0  0  0  0  0  0  0  0
   38.7907   -2.3510   38.9433 H   0  0  0  0  0  0  0  0  0  0  0  0
   37.1896    1.8715   39.6551 C   0  0  0  0  0  0  0  0  0  0  0  0
   37.4258    2.6839   38.9601 H   0  0  0  0  0  0  0  0  0  0  0  0
   37.8265    1.9833   40.5382 H   0  0  0  0  0  0  0  0  0  0  0  0
   36.1442    1.9838   39.9597 H   0  0  0  0  0  0  0  0  0  0  0  0
  1  2  1  0  0  0  0
  1  5  1  0  0  0  0
  2  3  2  0  0  0  0
  2 43  1  0  0  0  0
  3  4  1  0  0  0  0
  4  5  2  0  0  0  0
  4 42  1  0  0  0  0
  5  6  1  0  0  0  0
  6  7  1  0  0  0  0
  6 40  1  0  0  0  0
  6 41  1  0  0  0  0
  7  8  1  0  0  0  0
  8  9  1  0  0  0  0
  8 38  2  0  0  0  0
  9 10  1  0  0  0  0
  9 39  1  0  0  0  0
 10 11  2  0  0  0  0
 10 12  1  0  0  0  0
 12 13  2  0  0  0  0
 13 14  1  0  0  0  0
 13 38  1  0  0  0  0
 14 15  1  0  0  0  0
 15 16  1  0  0  0  0
 15 36  1  0  0  0  0
 15 37  1  0  0  0  0
 16 17  1  0  0  0  0
 16 21  2  0  0  0  0
 17 18  2  0  0  0  0
 17 35  1  0  0  0  0
 18 19  1  0  0  0  0
 18 34  1  0  0  0  0
 19 20  2  0  0  0  0
 19 24  1  0  0  0  0
 20 21  1  0  0  0  0
 20 23  1  0  0  0  0
 21 22  1  0  0  0  0
 24 25  1  0  0  0  0
 24 29  1  0  0  0  0
 24 33  1  0  0  0  0
 25 26  1  0  0  0  0
 25 27  1  0  0  0  0
 25 28  1  0  0  0  0
 29 30  1  0  0  0  0
 29 31  1  0  0  0  0
 29 32  1  0  0  0  0
 43 44  1  0  0  0  0
 43 45  1  0  0  0  0
 43 46  1  0  0  0  0
M  END
> <Gold.Goldscore.Fitness>
67.7756

> <Gold.Goldscore.External.HBond>
1.4847

> <Gold.Protein.ActiveResidues>
 GLU87   ILE88   VAL90   ASN91   ALA92   ASP94   ASN95   ARG98   ILE118  ASN120 
 LYS123  GLY124  ILE125  ILE141  PHE142  THR147  SER148  SER149  ASN150  TYR151 
 GLY160  GLY161  ARG162  ASN163  GLY164  TYR165  GLY166  ALA167  LYS168  LEU169 
 THR181  THR215  ILE217  ILE317  GLN376  LYS378  ILE33   TYR34   MG903  

> <Gold.Goldscore.Internal.HBond>
0.0

> <Gold.Goldscore.Internal.Torsion.Weighted>
-4.6232

> <Gold.Protein.RotatedTorsions>
[ 8833 2752 2751 2750 ] final  -92.65 input   60.00 | X-H torsion
[ 6906  969  968  965 ] final -179.89 input   59.99 | X-H torsion
[ 6910  975  974  971 ] final  -12.12 input   60.00 | X-H torsion
[ 6897  962  961  958 ] final   71.11 input   60.00 | X-H torsion
[ 9084 2997 2996 2994 ] final  -38.60 input   60.00 | X-H torsion
[ 7406 1497 1496 1493 ] final  170.76 input   60.00 | X-H torsion
[ 7140 1220 1219 1216 ] final  115.27 input   60.00 | X-H torsion
[ 6926  995  994  992 ] final   25.13 input   60.0

> <Gold.Goldscore.Constraint.Score>
0.0

> <Gold.Id.Protein>
1ZXM|1ZXM_protein|mol2

> <Gold.Protein.RotatedAtoms>
   40.6750    3.3830   41.8637 H   0  0  0  0  0  0  0  0  0  0  0  0  # atno 6897 bound_to 962 
   42.5663   -2.5035   38.2571 H   0  0  0  0  0  0  0  0  0  0  0  0  # atno 6906 bound_to 969 
   38.8111   -4.3840   40.0676 H   0  0  0  0  0  0  0  0  0  0  0  0  # atno 6910 bound_to 975 
   45.8911    1.1244   38.6740 H   0  0  0  0  0  0  0  0  0  0  0  0  # atno 6926 bound_to 995 
   28.0475    0.1168   43.0607 H   0  0  0  0  0  0  0  0  0  0  0  0  # atno 7140 bound_to 1220
   28.2838   -0.9017   41.0

> <Gold.Version>
5.3.0

> <Gold.Goldscore.Internal.Correction>
-0.0166

> <Gold.Goldscore.Internal.Vdw>
-1.3472

> <Gold.Goldscore.Internal.Vdw.Weighted>
-1.3472

> <Gold.Goldscore.External.HBond.Weighted>
1.4847

> <Gold.Goldscore.External.Vdw.Weighted>
72.2447

> <Gold.Goldscore.Internal.HBond.Weighted>
0.0

> <Gold.Goldscore.Hbonds>
donor molecule, donor type, donor heavy atom, donor atom, acceptor molecule, acceptor atom, score
      L1  H     1    27       P1   757  0.74

> <Gold.Goldscore.External.Vdw>
52.5416

> <Gold.Goldscore.Internal.Torsion>
-4.6232

> <Gold.Goldscore.Internal.Correction.Weighted>
-0.0166

> <Gold.Version>
5.3.0

> <Gold.Id.Protein>
1ZXM|1ZXM_protein|mol2

> <Gold.ASP.Fitness>
25.1729

> <Gold.ASP.ASP>
27.6500

> <Gold.ASP.Map>
-138.2500

> <Gold.ASP.DEClash>
1.0957

> <Gold.ASP.DEInternal>
1.3814

> <Gold.ASP.Internal.Correction>
0.1091

> <Gold.Protein.RotatedTorsions>
[ 8924 2752 2751 2750 ] final -166.73 input   60.00 | X-H torsion
[ 6908  969  968  965 ] final   80.14 input   59.99 | X-H torsion
[ 6912  975  974  971 ] final  108.19 input   60.00 | X-H torsion
[ 6899  962  961  958 ] final   87.20 input   60.00 | X-H torsion
[ 9165 2997 2996 2994 ] final -133.43 input   60.00 | X-H torsion
[ 7410 1497 1496 1493 ] final -158.21 input   60.00 | X-H torsion
[ 7137 1220 1219 1216 ] final  123.48 input   60.00 | X-H torsion
[ 6928  995  994  992 ] final   77.91 input   60.00 | X-H torsion

> <Gold.Protein.ActiveResidues>
 GLU87   ILE88   VAL90   ASN91   ALA92   ASP94   ASN95   ARG98   ILE118  ASN120 
 LYS123  GLY124  ILE125  ILE141  PHE142  THR147  SER148  SER149  ASN150  TYR151 
 GLY160  GLY161  ARG162  ASN163  GLY164  TYR165  GLY166  ALA167  LYS168  LEU169 
 THR181  THR215  ILE217  ILE317  GLN376  LYS378  ILE33   TYR34   MG903  

> <Gold.Protein.RotatedAtoms>
   40.5115    3.4407   42.0603 H   0  0  0  0  0  0  0  0  0  0  0  0  # atno 6899 bound_to 962 
   41.2088   -2.1191   38.5141 H   0  0  0  0  0  0  0  0  0  0  0  0  # atno 6908 bound_to 969 
   37.9795   -5.7286   40.4394 H   0  0  0  0  0  0  0  0  0  0  0  0  # atno 6912 bound_to 975 
   45.2261    1.2368   39.1616 H   0  0  0  0  0  0  0  0  0  0  0  0  # atno 6928 bound_to 995 
   28.1661    0.1107   43.1229 H   0  0  0  0  0  0  0  0  0  0  0  0  # atno 7137 bound_to 1220
   28.4472   -0.4869   41.2867 H   0  0  0  0  0  0  0  0  0  0  0  0  # atno 7410 bound_to 1497
   43.3161   -0.1298   31.0725 H   0  0  0  0  0  0  0  0  0  0  0  0  # atno 8924 bound_to 2752
   43.9994   -1.0566   29.8803 H   0  0  0  0  0  0  0  0  0  0  0  0  # atno 8925 bound_to 2752
   43.6988    0.5509   29.6106 H   0  0  0  0  0  0  0  0  0  0  0  0  # atno 8926 bound_to 2752
   33.8160   -4.1135   45.4246 H   0  0  0  0  0  0  0  0  0  0  0  0  # atno 9165 bound_to 2997
   41.7244   -3.1373   39.6740 LP  0  0  0  0  0  0  0  0  0  0  0  0  # atno 11896 bound_to 969 
   42.7242   -2.7092   38.4560 LP  0  0  0  0  0  0  0  0  0  0  0  0  # atno 11897 bound_to 969 
   38.8172   -4.3856   40.0617 LP  0  0  0  0  0  0  0  0  0  0  0  0  # atno 11898 bound_to 975 
   37.3847   -4.2669   40.8366 LP  0  0  0  0  0  0  0  0  0  0  0  0  # atno 11899 bound_to 975 
   41.9030    4.1828   41.6593 LP  0  0  0  0  0  0  0  0  0  0  0  0  # atno 11904 bound_to 962 
   41.0312    4.7104   42.9353 LP  0  0  0  0  0  0  0  0  0  0  0  0  # atno 11905 bound_to 962 
   34.6304   -5.3124   44.6846 LP  0  0  0  0  0  0  0  0  0  0  0  0  # atno 11912 bound_to 2997
   34.3431   -3.9102   43.8985 LP  0  0  0  0  0  0  0  0  0  0  0  0  # atno 11913 bound_to 2997
   27.0365   -1.2945   41.2118 LP  0  0  0  0  0  0  0  0  0  0  0  0  # atno 11922 bound_to 1497
   27.1539    0.0687   42.1031 LP  0  0  0  0  0  0  0  0  0  0  0  0  # atno 11923 bound_to 1497
   26.7308   -0.0646   43.8694 LP  0  0  0  0  0  0  0  0  0  0  0  0  # atno 11930 bound_to 1220
   28.1173   -0.1580   44.7271 LP  0  0  0  0  0  0  0  0  0  0  0  0  # atno 11931 bound_to 1220

$$$$
****|SGG-4|sdf|1|dock99
  -GOLD-   9 72311523D 1   1.00000     0.00000

 46 48  0  0  0  0  0  0  0  0  1 V2000
   38.7517    1.3228   36.9972 S   0  0  0  0  0  0  0  0  0  0  0  0
   39.7635   -0.0635   36.9186 C   0  0  0  0  0  0  0  0  0  0  0  0
   39.8212   -0.7855   38.0164 N   0  0  0  0  0  0  0  0  0  0  0  0
   39.0203   -0.2178   38.9870 C   0  0  0  0  0  0  0  0  0  0  0  0
   38.3530    0.9359   38.6218 C   0  0  0  0  0  0  0  0  0  0  0  0
   37.4458    1.8123   39.4236 C   0  0  0  0  0  0  0  0  0  0  0  0
   35.7520    1.7933   38.7522 S   0  0  0  0  0  0  0  0  0  0  0  0
   35.3995    0.0814   38.9409 C   0  0  0  0  0  0  0  0  0  0  0  0
   35.7755   -0.7969   37.9360 N   0  0  0  0  0  0  0  0  0  0  0  0
   35.4955   -2.1522   38.0588 C   0  0  0  0  0  0  0  0  0  0  0  0
   35.8806   -3.0459   37.0568 O   0  0  0  0  0  0  0  0  0  0  0  0
   34.8457   -2.5940   39.1401 N   0  0  0  0  0  0  0  0  0  0  0  0
   34.5090   -1.6835   40.0616 C   0  0  0  0  0  0  0  0  0  0  0  0
   33.5904   -2.2751   41.4578 S   0  0  0  0  0  0  0  0  0  0  0  0
   32.0595   -2.6373   40.5600 C   0  0  0  0  0  0  0  0  0  0  0  0
   31.7772   -1.6265   39.4777 C   0  0  0  0  0  0  0  0  0  0  0  0
   31.8557   -1.9802   38.1255 C   0  0  0  0  0  0  0  0  0  0  0  0
   31.5630   -1.0458   37.1269 C   0  0  0  0  0  0  0  0  0  0  0  0
   31.2016    0.2681   37.4563 C   0  0  0  0  0  0  0  0  0  0  0  0
   31.1355    0.6211   38.8118 C   0  0  0  0  0  0  0  0  0  0  0  0
   31.4224   -0.3129   39.8103 C   0  0  0  0  0  0  0  0  0  0  0  0
   31.3638   -0.0080   40.8533 H   0  0  0  0  0  0  0  0  0  0  0  0
   30.8539    1.6306   39.1040 H   0  0  0  0  0  0  0  0  0  0  0  0
   30.8453    1.2989   36.3993 C   0  0  0  0  0  0  0  0  0  0  0  0
   31.7562    2.5227   36.5177 C   0  0  0  0  0  0  0  0  0  0  0  0
   31.6230    3.0354   37.4767 H   0  0  0  0  0  0  0  0  0  0  0  0
   32.8108    2.2357   36.4374 H   0  0  0  0  0  0  0  0  0  0  0  0
   31.5444    3.2415   35.7189 H   0  0  0  0  0  0  0  0  0  0  0  0
   29.3720    1.7142   36.4346 C   0  0  0  0  0  0  0  0  0  0  0  0
   29.1365    2.3275   37.3110 H   0  0  0  0  0  0  0  0  0  0  0  0
   28.7169    0.8364   36.4502 H   0  0  0  0  0  0  0  0  0  0  0  0
   29.1209    2.3044   35.5464 H   0  0  0  0  0  0  0  0  0  0  0  0
   31.0177    0.8512   35.4111 H   0  0  0  0  0  0  0  0  0  0  0  0
   31.6143   -1.3626   36.0882 H   0  0  0  0  0  0  0  0  0  0  0  0
   32.1378   -2.9904   37.8369 H   0  0  0  0  0  0  0  0  0  0  0  0
   31.2098   -2.6544   41.2534 H   0  0  0  0  0  0  0  0  0  0  0  0
   32.1285   -3.6417   40.1253 H   0  0  0  0  0  0  0  0  0  0  0  0
   34.7541   -0.3685   40.0169 N   0  0  0  0  0  0  0  0  0  0  0  0
   36.2528   -0.4427   37.1190 H   0  0  0  0  0  0  0  0  0  0  0  0
   37.4242    1.4481   40.4575 H   0  0  0  0  0  0  0  0  0  0  0  0
   37.8122    2.8445   39.4383 H   0  0  0  0  0  0  0  0  0  0  0  0
   38.9595   -0.6947   39.9583 H   0  0  0  0  0  0  0  0  0  0  0  0
   40.5158   -0.3696   35.6721 C   0  0  0  0  0  0  0  0  0  0  0  0
   39.8306   -0.4408   34.8211 H   0  0  0  0  0  0  0  0  0  0  0  0
   41.0373   -1.3269   35.7699 H   0  0  0  0  0  0  0  0  0  0  0  0
   41.2512    0.4092   35.4464 H   0  0  0  0  0  0  0  0  0  0  0  0
  1  2  1  0  0  0  0
  1  5  1  0  0  0  0
  2  3  2  0  0  0  0
  2 43  1  0  0  0  0
  3  4  1  0  0  0  0
  4  5  2  0  0  0  0
  4 42  1  0  0  0  0
  5  6  1  0  0  0  0
  6  7  1  0  0  0  0
  6 40  1  0  0  0  0
  6 41  1  0  0  0  0
  7  8  1  0  0  0  0
  8  9  1  0  0  0  0
  8 38  2  0  0  0  0
  9 10  1  0  0  0  0
  9 39  1  0  0  0  0
 10 11  2  0  0  0  0
 10 12  1  0  0  0  0
 12 13  2  0  0  0  0
 13 14  1  0  0  0  0
 13 38  1  0  0  0  0
 14 15  1  0  0  0  0
 15 16  1  0  0  0  0
 15 36  1  0  0  0  0
 15 37  1  0  0  0  0
 16 17  1  0  0  0  0
 16 21  2  0  0  0  0
 17 18  2  0  0  0  0
 17 35  1  0  0  0  0
 18 19  1  0  0  0  0
 18 34  1  0  0  0  0
 19 20  2  0  0  0  0
 19 24  1  0  0  0  0
 20 21  1  0  0  0  0
 20 23  1  0  0  0  0
 21 22  1  0  0  0  0
 24 25  1  0  0  0  0
 24 29  1  0  0  0  0
 24 33  1  0  0  0  0
 25 26  1  0  0  0  0
 25 27  1  0  0  0  0
 25 28  1  0  0  0  0
 29 30  1  0  0  0  0
 29 31  1  0  0  0  0
 29 32  1  0  0  0  0
 43 44  1  0  0  0  0
 43 45  1  0  0  0  0
 43 46  1  0  0  0  0
M  END
> <Gold.Goldscore.Fitness>
67.7756

> <Gold.Goldscore.External.HBond>
1.4847

> <Gold.Protein.ActiveResidues>
 GLU87   ILE88   VAL90   ASN91   ALA92   ASP94   ASN95   ARG98   ILE118  ASN120 
 LYS123  GLY124  ILE125  ILE141  PHE142  THR147  SER148  SER149  ASN150  TYR151 
 GLY160  GLY161  ARG162  ASN163  GLY164  TYR165  GLY166  ALA167  LYS168  LEU169 
 THR181  THR215  ILE217  ILE317  GLN376  LYS378  ILE33   TYR34   MG903  

> <Gold.Goldscore.Internal.HBond>
0.0

> <Gold.Goldscore.Internal.Torsion.Weighted>
-4.6232

> <Gold.Protein.RotatedTorsions>
[ 8833 2752 2751 2750 ] final  -92.65 input   60.00 | X-H torsion
[ 6906  969  968  965 ] final -179.89 input   59.99 | X-H torsion
[ 6910  975  974  971 ] final  -12.12 input   60.00 | X-H torsion
[ 6897  962  961  958 ] final   71.11 input   60.00 | X-H torsion
[ 9084 2997 2996 2994 ] final  -38.60 input   60.00 | X-H torsion
[ 7406 1497 1496 1493 ] final  170.76 input   60.00 | X-H torsion
[ 7140 1220 1219 1216 ] final  115.27 input   60.00 | X-H torsion
[ 6926  995  994  992 ] final   25.13 input   60.0

> <Gold.Goldscore.Constraint.Score>
0.0

> <Gold.Id.Protein>
1ZXM|1ZXM_protein|mol2

> <Gold.Protein.RotatedAtoms>
   40.6750    3.3830   41.8637 H   0  0  0  0  0  0  0  0  0  0  0  0  # atno 6897 bound_to 962 
   42.5663   -2.5035   38.2571 H   0  0  0  0  0  0  0  0  0  0  0  0  # atno 6906 bound_to 969 
   38.8111   -4.3840   40.0676 H   0  0  0  0  0  0  0  0  0  0  0  0  # atno 6910 bound_to 975 
   45.8911    1.1244   38.6740 H   0  0  0  0  0  0  0  0  0  0  0  0  # atno 6926 bound_to 995 
   28.0475    0.1168   43.0607 H   0  0  0  0  0  0  0  0  0  0  0  0  # atno 7140 bound_to 1220
   28.2838   -0.9017   41.0

> <Gold.Version>
5.3.0

> <Gold.Goldscore.Internal.Correction>
-0.0166

> <Gold.Goldscore.Internal.Vdw>
-1.3472

> <Gold.Goldscore.Internal.Vdw.Weighted>
-1.3472

> <Gold.Goldscore.External.HBond.Weighted>
1.4847

> <Gold.Goldscore.External.Vdw.Weighted>
72.2447

> <Gold.Goldscore.Internal.HBond.Weighted>
0.0

> <Gold.Goldscore.Hbonds>
donor molecule, donor type, donor heavy atom, donor atom, acceptor molecule, acceptor atom, score
      L1  H     1    27       P1   757  0.74

> <Gold.Goldscore.External.Vdw>
52.5416

> <Gold.Goldscore.Internal.Torsion>
-4.6232

> <Gold.Goldscore.Internal.Correction.Weighted>
-0.0166

> <Gold.Version>
5.3.0

> <Gold.Id.Protein>
1ZXM|1ZXM_protein|mol2

> <Gold.ASP.Fitness>
25.0859

> <Gold.ASP.ASP>
27.5760

> <Gold.ASP.Map>
-137.8800

> <Gold.ASP.DEClash>
1.8610

> <Gold.ASP.DEInternal>
0.6292

> <Gold.ASP.Internal.Correction>
0.1072

> <Gold.Protein.RotatedTorsions>
[ 8924 2752 2751 2750 ] final -129.83 input   60.00 | X-H torsion
[ 6908  969  968  965 ] final -147.46 input   59.99 | X-H torsion
[ 6912  975  974  971 ] final  -68.31 input   60.00 | X-H torsion
[ 6899  962  961  958 ] final  107.61 input   60.00 | X-H torsion
[ 9165 2997 2996 2994 ] final   88.00 input   60.00 | X-H torsion
[ 7410 1497 1496 1493 ] final  124.23 input   60.00 | X-H torsion
[ 7137 1220 1219 1216 ] final   66.19 input   60.00 | X-H torsion
[ 6928  995  994  992 ] final  168.01 input   60.00 | X-H torsion

> <Gold.Protein.ActiveResidues>
 GLU87   ILE88   VAL90   ASN91   ALA92   ASP94   ASN95   ARG98   ILE118  ASN120 
 LYS123  GLY124  ILE125  ILE141  PHE142  THR147  SER148  SER149  ASN150  TYR151 
 GLY160  GLY161  ARG162  ASN163  GLY164  TYR165  GLY166  ALA167  LYS168  LEU169 
 THR181  THR215  ILE217  ILE317  GLN376  LYS378  ILE33   TYR34   MG903  

> <Gold.Protein.RotatedAtoms>
   40.3771    3.5881   42.3254 H   0  0  0  0  0  0  0  0  0  0  0  0  # atno 6899 bound_to 962 
   42.7638   -2.8314   38.6133 H   0  0  0  0  0  0  0  0  0  0  0  0  # atno 6908 bound_to 969 
   38.1925   -3.8693   40.4279 H   0  0  0  0  0  0  0  0  0  0  0  0  # atno 6912 bound_to 975 
   45.6435    1.5752   40.3729 H   0  0  0  0  0  0  0  0  0  0  0  0  # atno 6928 bound_to 995 
   27.2706    0.0886   43.0686 H   0  0  0  0  0  0  0  0  0  0  0  0  # atno 7137 bound_to 1220
   27.6756   -1.3152   40.9802 H   0  0  0  0  0  0  0  0  0  0  0  0  # atno 7410 bound_to 1497
   43.4915   -0.7034   30.9888 H   0  0  0  0  0  0  0  0  0  0  0  0  # atno 8924 bound_to 2752
   44.0664   -0.6514   29.4351 H   0  0  0  0  0  0  0  0  0  0  0  0  # atno 8925 bound_to 2752
   43.4565    0.7194   30.1394 H   0  0  0  0  0  0  0  0  0  0  0  0  # atno 8926 bound_to 2752
   34.7080   -5.2237   44.4052 H   0  0  0  0  0  0  0  0  0  0  0  0  # atno 9165 bound_to 2997
   41.3431   -2.0766   38.3679 LP  0  0  0  0  0  0  0  0  0  0  0  0  # atno 11896 bound_to 969 
   41.5395   -3.0526   39.6623 LP  0  0  0  0  0  0  0  0  0  0  0  0  # atno 11897 bound_to 969 
   37.2831   -5.1536   40.8421 LP  0  0  0  0  0  0  0  0  0  0  0  0  # atno 11898 bound_to 975 
   38.7043   -5.3714   40.0678 LP  0  0  0  0  0  0  0  0  0  0  0  0  # atno 11899 bound_to 975 
   41.7498    3.9220   41.5177 LP  0  0  0  0  0  0  0  0  0  0  0  0  # atno 11904 bound_to 962 
   41.3197    4.8228   42.8101 LP  0  0  0  0  0  0  0  0  0  0  0  0  # atno 11905 bound_to 962 
   34.1881   -3.7173   44.0755 LP  0  0  0  0  0  0  0  0  0  0  0  0  # atno 11912 bound_to 2997
   33.8871   -4.3872   45.5341 LP  0  0  0  0  0  0  0  0  0  0  0  0  # atno 11913 bound_to 2997
   26.7049   -0.4132   41.9248 LP  0  0  0  0  0  0  0  0  0  0  0  0  # atno 11922 bound_to 1497
   28.2626    0.0216   41.6988 LP  0  0  0  0  0  0  0  0  0  0  0  0  # atno 11923 bound_to 1497
   27.1382   -0.1821   44.6676 LP  0  0  0  0  0  0  0  0  0  0  0  0  # atno 11930 bound_to 1220
   28.6119   -0.0182   43.9836 LP  0  0  0  0  0  0  0  0  0  0  0  0  # atno 11931 bound_to 1220

$$$$
****|SGG-4|sdf|1|dock63
  -GOLD-   9 72311493D 1   1.00000     0.00000

 46 48  0  0  0  0  0  0  0  0  1 V2000
   30.4727   -1.1349   37.4860 S   0  0  0  0  0  0  0  0  0  0  0  0
   30.5168    0.5760   37.6355 C   0  0  0  0  0  0  0  0  0  0  0  0
   31.1831    1.0371   38.6715 N   0  0  0  0  0  0  0  0  0  0  0  0
   31.6951   -0.0179   39.3999 C   0  0  0  0  0  0  0  0  0  0  0  0
   31.4172   -1.2808   38.9124 C   0  0  0  0  0  0  0  0  0  0  0  0
   31.7821   -2.6217   39.4628 C   0  0  0  0  0  0  0  0  0  0  0  0
   32.7770   -2.4599   40.9807 S   0  0  0  0  0  0  0  0  0  0  0  0
   33.8411   -3.8420   40.7619 C   0  0  0  0  0  0  0  0  0  0  0  0
   34.5173   -4.3502   41.8606 N   0  0  0  0  0  0  0  0  0  0  0  0
   35.3730   -5.4341   41.7080 C   0  0  0  0  0  0  0  0  0  0  0  0
   36.0494   -5.9598   42.8111 O   0  0  0  0  0  0  0  0  0  0  0  0
   35.5514   -5.9651   40.4944 N   0  0  0  0  0  0  0  0  0  0  0  0
   34.8702   -5.4134   39.4829 C   0  0  0  0  0  0  0  0  0  0  0  0
   35.1679   -6.0865   37.8700 S   0  0  0  0  0  0  0  0  0  0  0  0
   36.6814   -5.1509   37.5314 C   0  0  0  0  0  0  0  0  0  0  0  0
   36.5259   -3.6817   37.8312 C   0  0  0  0  0  0  0  0  0  0  0  0
   37.2876   -3.0677   38.8325 C   0  0  0  0  0  0  0  0  0  0  0  0
   37.1604   -1.6981   39.0851 C   0  0  0  0  0  0  0  0  0  0  0  0
   36.2568   -0.9138   38.3543 C   0  0  0  0  0  0  0  0  0  0  0  0
   35.4876   -1.5353   37.3602 C   0  0  0  0  0  0  0  0  0  0  0  0
   35.6177   -2.9023   37.1033 C   0  0  0  0  0  0  0  0  0  0  0  0
   35.0055   -3.3559   36.3262 H   0  0  0  0  0  0  0  0  0  0  0  0
   34.7797   -0.9565   36.7704 H   0  0  0  0  0  0  0  0  0  0  0  0
   36.1167    0.5817   38.5795 C   0  0  0  0  0  0  0  0  0  0  0  0
   37.4920    1.2524   38.5854 C   0  0  0  0  0  0  0  0  0  0  0  0
   38.1141    0.8935   39.4128 H   0  0  0  0  0  0  0  0  0  0  0  0
   38.0305    1.0510   37.6525 H   0  0  0  0  0  0  0  0  0  0  0  0
   37.3924    2.3385   38.6852 H   0  0  0  0  0  0  0  0  0  0  0  0
   35.3383    0.9295   39.8512 C   0  0  0  0  0  0  0  0  0  0  0  0
   35.9087    0.7057   40.7590 H   0  0  0  0  0  0  0  0  0  0  0  0
   34.3954    0.3740   39.8987 H   0  0  0  0  0  0  0  0  0  0  0  0
   35.0992    1.9985   39.8714 H   0  0  0  0  0  0  0  0  0  0  0  0
   35.5455    1.0032   37.7412 H   0  0  0  0  0  0  0  0  0  0  0  0
   37.7836   -1.2521   39.8563 H   0  0  0  0  0  0  0  0  0  0  0  0
   37.9942   -3.6495   39.4204 H   0  0  0  0  0  0  0  0  0  0  0  0
   36.9687   -5.2650   36.4789 H   0  0  0  0  0  0  0  0  0  0  0  0
   37.5018   -5.5695   38.1264 H   0  0  0  0  0  0  0  0  0  0  0  0
   34.0234   -4.3796   39.5558 N   0  0  0  0  0  0  0  0  0  0  0  0
   34.3812   -3.9265   42.7677 H   0  0  0  0  0  0  0  0  0  0  0  0
   30.8624   -3.1713   39.6956 H   0  0  0  0  0  0  0  0  0  0  0  0
   32.3458   -3.2058   38.7273 H   0  0  0  0  0  0  0  0  0  0  0  0
   32.2725    0.1951   40.2920 H   0  0  0  0  0  0  0  0  0  0  0  0
   29.8150    1.4312   36.6407 C   0  0  0  0  0  0  0  0  0  0  0  0
   30.1632    1.2022   35.6282 H   0  0  0  0  0  0  0  0  0  0  0  0
   30.0183    2.4882   36.8395 H   0  0  0  0  0  0  0  0  0  0  0  0
   28.7325    1.2709   36.6673 H   0  0  0  0  0  0  0  0  0  0  0  0
  1  2  1  0  0  0  0
  1  5  1  0  0  0  0
  2  3  2  0  0  0  0
  2 43  1  0  0  0  0
  3  4  1  0  0  0  0
  4  5  2  0  0  0  0
  4 42  1  0  0  0  0
  5  6  1  0  0  0  0
  6  7  1  0  0  0  0
  6 40  1  0  0  0  0
  6 41  1  0  0  0  0
  7  8  1  0  0  0  0
  8  9  1  0  0  0  0
  8 38  2  0  0  0  0
  9 10  1  0  0  0  0
  9 39  1  0  0  0  0
 10 11  2  0  0  0  0
 10 12  1  0  0  0  0
 12 13  2  0  0  0  0
 13 14  1  0  0  0  0
 13 38  1  0  0  0  0
 14 15  1  0  0  0  0
 15 16  1  0  0  0  0
 15 36  1  0  0  0  0
 15 37  1  0  0  0  0
 16 17  1  0  0  0  0
 16 21  2  0  0  0  0
 17 18  2  0  0  0  0
 17 35  1  0  0  0  0
 18 19  1  0  0  0  0
 18 34  1  0  0  0  0
 19 20  2  0  0  0  0
 19 24  1  0  0  0  0
 20 21  1  0  0  0  0
 20 23  1  0  0  0  0
 21 22  1  0  0  0  0
 24 25  1  0  0  0  0
 24 29  1  0  0  0  0
 24 33  1  0  0  0  0
 25 26  1  0  0  0  0
 25 27  1  0  0  0  0
 25 28  1  0  0  0  0
 29 30  1  0  0  0  0
 29 31  1  0  0  0  0
 29 32  1  0  0  0  0
 43 44  1  0  0  0  0
 43 45  1  0  0  0  0
 43 46  1  0  0  0  0
M  END
> <Gold.Goldscore.Fitness>
67.7756

> <Gold.Goldscore.External.HBond>
1.4847

> <Gold.Protein.ActiveResidues>
 GLU87   ILE88   VAL90   ASN91   ALA92   ASP94   ASN95   ARG98   ILE118  ASN120 
 LYS123  GLY124  ILE125  ILE141  PHE142  THR147  SER148  SER149  ASN150  TYR151 
 GLY160  GLY161  ARG162  ASN163  GLY164  TYR165  GLY166  ALA167  LYS168  LEU169 
 THR181  THR215  ILE217  ILE317  GLN376  LYS378  ILE33   TYR34   MG903  

> <Gold.Goldscore.Internal.HBond>
0.0

> <Gold.Goldscore.Internal.Torsion.Weighted>
-4.6232

> <Gold.Protein.RotatedTorsions>
[ 8833 2752 2751 2750 ] final  -92.65 input   60.00 | X-H torsion
[ 6906  969  968  965 ] final -179.89 input   59.99 | X-H torsion
[ 6910  975  974  971 ] final  -12.12 input   60.00 | X-H torsion
[ 6897  962  961  958 ] final   71.11 input   60.00 | X-H torsion
[ 9084 2997 2996 2994 ] final  -38.60 input   60.00 | X-H torsion
[ 7406 1497 1496 1493 ] final  170.76 input   60.00 | X-H torsion
[ 7140 1220 1219 1216 ] final  115.27 input   60.00 | X-H torsion
[ 6926  995  994  992 ] final   25.13 input   60.0

> <Gold.Goldscore.Constraint.Score>
0.0

> <Gold.Id.Protein>
1ZXM|1ZXM_protein|mol2

> <Gold.Protein.RotatedAtoms>
   40.6750    3.3830   41.8637 H   0  0  0  0  0  0  0  0  0  0  0  0  # atno 6897 bound_to 962 
   42.5663   -2.5035   38.2571 H   0  0  0  0  0  0  0  0  0  0  0  0  # atno 6906 bound_to 969 
   38.8111   -4.3840   40.0676 H   0  0  0  0  0  0  0  0  0  0  0  0  # atno 6910 bound_to 975 
   45.8911    1.1244   38.6740 H   0  0  0  0  0  0  0  0  0  0  0  0  # atno 6926 bound_to 995 
   28.0475    0.1168   43.0607 H   0  0  0  0  0  0  0  0  0  0  0  0  # atno 7140 bound_to 1220
   28.2838   -0.9017   41.0

> <Gold.Version>
5.3.0

> <Gold.Goldscore.Internal.Correction>
-0.0166

> <Gold.Goldscore.Internal.Vdw>
-1.3472

> <Gold.Goldscore.Internal.Vdw.Weighted>
-1.3472

> <Gold.Goldscore.External.HBond.Weighted>
1.4847

> <Gold.Goldscore.External.Vdw.Weighted>
72.2447

> <Gold.Goldscore.Internal.HBond.Weighted>
0.0

> <Gold.Goldscore.Hbonds>
donor molecule, donor type, donor heavy atom, donor atom, acceptor molecule, acceptor atom, score
      L1  H     1    27       P1   757  0.74

> <Gold.Goldscore.External.Vdw>
52.5416

> <Gold.Goldscore.Internal.Torsion>
-4.6232

> <Gold.Goldscore.Internal.Correction.Weighted>
-0.0166

> <Gold.Version>
5.3.0

> <Gold.Id.Protein>
1ZXM|1ZXM_protein|mol2

> <Gold.ASP.Fitness>
24.9349

> <Gold.ASP.ASP>
28.3160

> <Gold.ASP.Map>
-141.5800

> <Gold.ASP.DEClash>
2.3056

> <Gold.ASP.DEInternal>
1.0756

> <Gold.ASP.Internal.Correction>
0.1091

> <Gold.Protein.RotatedTorsions>
[ 8924 2752 2751 2750 ] final   64.04 input   60.00 | X-H torsion
[ 6908  969  968  965 ] final   80.34 input   59.99 | X-H torsion
[ 6912  975  974  971 ] final  145.63 input   60.00 | X-H torsion
[ 6899  962  961  958 ] final -128.67 input   60.00 | X-H torsion
[ 9165 2997 2996 2994 ] final  -93.24 input   60.00 | X-H torsion
[ 7410 1497 1496 1493 ] final  101.41 input   60.00 | X-H torsion
[ 7137 1220 1219 1216 ] final  -94.73 input   60.00 | X-H torsion
[ 6928  995  994  992 ] final  -31.73 input   60.00 | X-H torsion

> <Gold.Protein.ActiveResidues>
 GLU87   ILE88   VAL90   ASN91   ALA92   ASP94   ASN95   ARG98   ILE118  ASN120 
 LYS123  GLY124  ILE125  ILE141  PHE142  THR147  SER148  SER149  ASN150  TYR151 
 GLY160  GLY161  ARG162  ASN163  GLY164  TYR165  GLY166  ALA167  LYS168  LEU169 
 THR181  THR215  ILE217  ILE317  GLN376  LYS378  ILE33   TYR34   MG903  

> <Gold.Protein.RotatedAtoms>
   41.3706    4.8274   42.7760 H   0  0  0  0  0  0  0  0  0  0  0  0  # atno 6899 bound_to 962 
   41.2107   -2.1183   38.5117 H   0  0  0  0  0  0  0  0  0  0  0  0  # atno 6908 bound_to 969 
   37.4971   -5.4952   40.7111 H   0  0  0  0  0  0  0  0  0  0  0  0  # atno 6912 bound_to 975 
   46.7390    1.2182   38.9323 H   0  0  0  0  0  0  0  0  0  0  0  0  # atno 6928 bound_to 995 
   27.7763   -0.1834   44.8234 H   0  0  0  0  0  0  0  0  0  0  0  0  # atno 7137 bound_to 1220
   27.3194   -1.3535   41.0736 H   0  0  0  0  0  0  0  0  0  0  0  0  # atno 7410 bound_to 1497
   43.7618    0.4552   29.5075 H   0  0  0  0  0  0  0  0  0  0  0  0  # atno 8924 bound_to 2752
   43.2928    0.0181   31.0360 H   0  0  0  0  0  0  0  0  0  0  0  0  # atno 8925 bound_to 2752
   43.9598   -1.1087   30.0198 H   0  0  0  0  0  0  0  0  0  0  0  0  # atno 8926 bound_to 2752
   33.8153   -3.6728   44.9559 H   0  0  0  0  0  0  0  0  0  0  0  0  # atno 9165 bound_to 2997
   41.7214   -3.1361   39.6741 LP  0  0  0  0  0  0  0  0  0  0  0  0  # atno 11896 bound_to 969 
   42.7252   -2.7112   38.4583 LP  0  0  0  0  0  0  0  0  0  0  0  0  # atno 11897 bound_to 969 
   38.8694   -4.9854   40.0005 LP  0  0  0  0  0  0  0  0  0  0  0  0  # atno 11898 bound_to 975 
   37.8184   -3.9023   40.6241 LP  0  0  0  0  0  0  0  0  0  0  0  0  # atno 11899 bound_to 975 
   40.3560    3.6206   42.3729 LP  0  0  0  0  0  0  0  0  0  0  0  0  # atno 11904 bound_to 962 
   41.7130    3.8760   41.5010 LP  0  0  0  0  0  0  0  0  0  0  0  0  # atno 11905 bound_to 962 
   34.3450   -5.1828   45.2516 LP  0  0  0  0  0  0  0  0  0  0  0  0  # atno 11912 bound_to 2997
   34.6292   -4.4836   43.8034 LP  0  0  0  0  0  0  0  0  0  0  0  0  # atno 11913 bound_to 2997
   26.9020   -0.1249   42.0555 LP  0  0  0  0  0  0  0  0  0  0  0  0  # atno 11922 bound_to 1497
   28.4244   -0.2281   41.4740 LP  0  0  0  0  0  0  0  0  0  0  0  0  # atno 11923 bound_to 1497
   28.4313    0.0789   43.3571 LP  0  0  0  0  0  0  0  0  0  0  0  0  # atno 11930 bound_to 1220
   26.8094   -0.0053   43.5268 LP  0  0  0  0  0  0  0  0  0  0  0  0  # atno 11931 bound_to 1220

$$$$
****|SGG-4|sdf|1|dock86
  -GOLD-   9 72311513D 1   1.00000     0.00000

 46 48  0  0  0  0  0  0  0  0  1 V2000
   38.2415   -0.7526   37.7984 S   0  0  0  0  0  0  0  0  0  0  0  0
   39.5504    0.1497   37.1471 C   0  0  0  0  0  0  0  0  0  0  0  0
   39.6933    1.3664   37.6257 N   0  0  0  0  0  0  0  0  0  0  0  0
   38.7132    1.6123   38.5662 C   0  0  0  0  0  0  0  0  0  0  0  0
   37.8275    0.5779   38.8014 C   0  0  0  0  0  0  0  0  0  0  0  0
   36.6457    0.5179   39.7146 C   0  0  0  0  0  0  0  0  0  0  0  0
   36.7078   -0.9644   40.7724 S   0  0  0  0  0  0  0  0  0  0  0  0
   36.1159   -2.1517   39.6190 C   0  0  0  0  0  0  0  0  0  0  0  0
   36.9130   -2.4930   38.5369 N   0  0  0  0  0  0  0  0  0  0  0  0
   36.4595   -3.4196   37.6063 C   0  0  0  0  0  0  0  0  0  0  0  0
   37.2602   -3.7779   36.5194 O   0  0  0  0  0  0  0  0  0  0  0  0
   35.2458   -3.9597   37.7540 N   0  0  0  0  0  0  0  0  0  0  0  0
   34.5335   -3.5731   38.8192 C   0  0  0  0  0  0  0  0  0  0  0  0
   32.9008   -4.2484   38.9651 S   0  0  0  0  0  0  0  0  0  0  0  0
   32.2230   -2.9288   40.0044 C   0  0  0  0  0  0  0  0  0  0  0  0
   31.7451   -1.7503   39.1948 C   0  0  0  0  0  0  0  0  0  0  0  0
   30.3847   -1.5742   38.9154 C   0  0  0  0  0  0  0  0  0  0  0  0
   29.9448   -0.4626   38.1897 C   0  0  0  0  0  0  0  0  0  0  0  0
   30.8561    0.4898   37.7120 C   0  0  0  0  0  0  0  0  0  0  0  0
   32.2189    0.3033   37.9843 C   0  0  0  0  0  0  0  0  0  0  0  0
   32.6590   -0.8039   38.7137 C   0  0  0  0  0  0  0  0  0  0  0  0
   33.7233   -0.9216   38.9074 H   0  0  0  0  0  0  0  0  0  0  0  0
   32.9536    1.0249   37.6330 H   0  0  0  0  0  0  0  0  0  0  0  0
   30.4104    1.7254   36.9495 C   0  0  0  0  0  0  0  0  0  0  0  0
   29.3690    1.3540   35.8917 C   0  0  0  0  0  0  0  0  0  0  0  0
   29.7843    0.6814   35.1331 H   0  0  0  0  0  0  0  0  0  0  0  0
   28.5091    0.8506   36.3479 H   0  0  0  0  0  0  0  0  0  0  0  0
   28.9990    2.2498   35.3816 H   0  0  0  0  0  0  0  0  0  0  0  0
   31.5731    2.4963   36.3184 C   0  0  0  0  0  0  0  0  0  0  0  0
   32.0118    1.9606   35.4698 H   0  0  0  0  0  0  0  0  0  0  0  0
   32.3672    2.6779   37.0508 H   0  0  0  0  0  0  0  0  0  0  0  0
   31.2295    3.4685   35.9481 H   0  0  0  0  0  0  0  0  0  0  0  0
   29.9315    2.4131   37.6596 H   0  0  0  0  0  0  0  0  0  0  0  0
   28.8787   -0.3483   38.0101 H   0  0  0  0  0  0  0  0  0  0  0  0
   29.6529   -2.2978   39.2680 H   0  0  0  0  0  0  0  0  0  0  0  0
   32.9820   -2.5804   40.7156 H   0  0  0  0  0  0  0  0  0  0  0  0
   31.3967   -3.3323   40.6017 H   0  0  0  0  0  0  0  0  0  0  0  0
   34.9078   -2.6973   39.7595 N   0  0  0  0  0  0  0  0  0  0  0  0
   37.8216   -2.0634   38.4336 H   0  0  0  0  0  0  0  0  0  0  0  0
   36.6440    1.4108   40.3509 H   0  0  0  0  0  0  0  0  0  0  0  0
   35.7108    0.5099   39.1438 H   0  0  0  0  0  0  0  0  0  0  0  0
   38.6912    2.5784   39.0569 H   0  0  0  0  0  0  0  0  0  0  0  0
   40.4221   -0.4482   36.1000 C   0  0  0  0  0  0  0  0  0  0  0  0
   40.8460   -1.3944   36.4516 H   0  0  0  0  0  0  0  0  0  0  0  0
   41.2494    0.2286   35.8642 H   0  0  0  0  0  0  0  0  0  0  0  0
   39.8627   -0.6520   35.1814 H   0  0  0  0  0  0  0  0  0  0  0  0
  1  2  1  0  0  0  0
  1  5  1  0  0  0  0
  2  3  2  0  0  0  0
  2 43  1  0  0  0  0
  3  4  1  0  0  0  0
  4  5  2  0  0  0  0
  4 42  1  0  0  0  0
  5  6  1  0  0  0  0
  6  7  1  0  0  0  0
  6 40  1  0  0  0  0
  6 41  1  0  0  0  0
  7  8  1  0  0  0  0
  8  9  1  0  0  0  0
  8 38  2  0  0  0  0
  9 10  1  0  0  0  0
  9 39  1  0  0  0  0
 10 11  2  0  0  0  0
 10 12  1  0  0  0  0
 12 13  2  0  0  0  0
 13 14  1  0  0  0  0
 13 38  1  0  0  0  0
 14 15  1  0  0  0  0
 15 16  1  0  0  0  0
 15 36  1  0  0  0  0
 15 37  1  0  0  0  0
 16 17  1  0  0  0  0
 16 21  2  0  0  0  0
 17 18  2  0  0  0  0
 17 35  1  0  0  0  0
 18 19  1  0  0  0  0
 18 34  1  0  0  0  0
 19 20  2  0  0  0  0
 19 24  1  0  0  0  0
 20 21  1  0  0  0  0
 20 23  1  0  0  0  0
 21 22  1  0  0  0  0
 24 25  1  0  0  0  0
 24 29  1  0  0  0  0
 24 33  1  0  0  0  0
 25 26  1  0  0  0  0
 25 27  1  0  0  0  0
 25 28  1  0  0  0  0
 29 30  1  0  0  0  0
 29 31  1  0  0  0  0
 29 32  1  0  0  0  0
 43 44  1  0  0  0  0
 43 45  1  0  0  0  0
 43 46  1  0  0  0  0
M  END
> <Gold.Goldscore.Fitness>
67.7756

> <Gold.Goldscore.External.HBond>
1.4847

> <Gold.Protein.ActiveResidues>
 GLU87   ILE88   VAL90   ASN91   ALA92   ASP94   ASN95   ARG98   ILE118  ASN120 
 LYS123  GLY124  ILE125  ILE141  PHE142  THR147  SER148  SER149  ASN150  TYR151 
 GLY160  GLY161  ARG162  ASN163  GLY164  TYR165  GLY166  ALA167  LYS168  LEU169 
 THR181  THR215  ILE217  ILE317  GLN376  LYS378  ILE33   TYR34   MG903  

> <Gold.Goldscore.Internal.HBond>
0.0

> <Gold.Goldscore.Internal.Torsion.Weighted>
-4.6232

> <Gold.Protein.RotatedTorsions>
[ 8833 2752 2751 2750 ] final  -92.65 input   60.00 | X-H torsion
[ 6906  969  968  965 ] final -179.89 input   59.99 | X-H torsion
[ 6910  975  974  971 ] final  -12.12 input   60.00 | X-H torsion
[ 6897  962  961  958 ] final   71.11 input   60.00 | X-H torsion
[ 9084 2997 2996 2994 ] final  -38.60 input   60.00 | X-H torsion
[ 7406 1497 1496 1493 ] final  170.76 input   60.00 | X-H torsion
[ 7140 1220 1219 1216 ] final  115.27 input   60.00 | X-H torsion
[ 6926  995  994  992 ] final   25.13 input   60.0

> <Gold.Goldscore.Constraint.Score>
0.0

> <Gold.Id.Protein>
1ZXM|1ZXM_protein|mol2

> <Gold.Protein.RotatedAtoms>
   40.6750    3.3830   41.8637 H   0  0  0  0  0  0  0  0  0  0  0  0  # atno 6897 bound_to 962 
   42.5663   -2.5035   38.2571 H   0  0  0  0  0  0  0  0  0  0  0  0  # atno 6906 bound_to 969 
   38.8111   -4.3840   40.0676 H   0  0  0  0  0  0  0  0  0  0  0  0  # atno 6910 bound_to 975 
   45.8911    1.1244   38.6740 H   0  0  0  0  0  0  0  0  0  0  0  0  # atno 6926 bound_to 995 
   28.0475    0.1168   43.0607 H   0  0  0  0  0  0  0  0  0  0  0  0  # atno 7140 bound_to 1220
   28.2838   -0.9017   41.0

> <Gold.Version>
5.3.0

> <Gold.Goldscore.Internal.Correction>
-0.0166

> <Gold.Goldscore.Internal.Vdw>
-1.3472

> <Gold.Goldscore.Internal.Vdw.Weighted>
-1.3472

> <Gold.Goldscore.External.HBond.Weighted>
1.4847

> <Gold.Goldscore.External.Vdw.Weighted>
72.2447

> <Gold.Goldscore.Internal.HBond.Weighted>
0.0

> <Gold.Goldscore.Hbonds>
donor molecule, donor type, donor heavy atom, donor atom, acceptor molecule, acceptor atom, score
      L1  H     1    27       P1   757  0.74

> <Gold.Goldscore.External.Vdw>
52.5416

> <Gold.Goldscore.Internal.Torsion>
-4.6232

> <Gold.Goldscore.Internal.Correction.Weighted>
-0.0166

> <Gold.Version>
5.3.0

> <Gold.Id.Protein>
1ZXM|1ZXM_protein|mol2

> <Gold.ASP.Fitness>
24.8955

> <Gold.ASP.ASP>
28.6000

> <Gold.ASP.Map>
-143.0000

> <Gold.ASP.DEClash>
0.5173

> <Gold.ASP.DEInternal>
3.1872

> <Gold.ASP.Internal.Correction>
0.1091

> <Gold.Protein.RotatedTorsions>
[ 8924 2752 2751 2750 ] final   62.99 input   60.00 | X-H torsion
[ 6908  969  968  965 ] final   11.35 input   59.99 | X-H torsion
[ 6912  975  974  971 ] final  -19.76 input   60.00 | X-H torsion
[ 6899  962  961  958 ] final -103.21 input   60.00 | X-H torsion
[ 9165 2997 2996 2994 ] final    2.09 input   60.00 | X-H torsion
[ 7410 1497 1496 1493 ] final  140.44 input   60.00 | X-H torsion
[ 7137 1220 1219 1216 ] final  151.99 input   60.00 | X-H torsion
[ 6928  995  994  992 ] final   36.41 input   60.00 | X-H torsion

> <Gold.Protein.ActiveResidues>
 GLU87   ILE88   VAL90   ASN91   ALA92   ASP94   ASN95   ARG98   ILE118  ASN120 
 LYS123  GLY124  ILE125  ILE141  PHE142  THR147  SER148  SER149  ASN150  TYR151 
 GLY160  GLY161  ARG162  ASN163  GLY164  TYR165  GLY166  ALA167  LYS168  LEU169 
 THR181  THR215  ILE217  ILE317  GLN376  LYS378  ILE33   TYR34   MG903  

> <Gold.Protein.RotatedAtoms>
   41.6833    4.8205   42.5071 H   0  0  0  0  0  0  0  0  0  0  0  0  # atno 6899 bound_to 962 
   41.1057   -2.6885   39.3995 H   0  0  0  0  0  0  0  0  0  0  0  0  # atno 6908 bound_to 969 
   38.7588   -4.2762   40.1017 H   0  0  0  0  0  0  0  0  0  0  0  0  # atno 6912 bound_to 975 
   45.7144    1.1330   38.7248 H   0  0  0  0  0  0  0  0  0  0  0  0  # atno 6928 bound_to 995 
   28.4856    0.0674   43.4525 H   0  0  0  0  0  0  0  0  0  0  0  0  # atno 7137 bound_to 1220
   27.9199   -1.2159   40.9660 H   0  0  0  0  0  0  0  0  0  0  0  0  # atno 7410 bound_to 1497
   43.7688    0.4432   29.4969 H   0  0  0  0  0  0  0  0  0  0  0  0  # atno 8924 bound_to 2752
   43.2908    0.0345   31.0305 H   0  0  0  0  0  0  0  0  0  0  0  0  # atno 8925 bound_to 2752
   43.9548   -1.1131   30.0359 H   0  0  0  0  0  0  0  0  0  0  0  0  # atno 8926 bound_to 2752
   34.4673   -4.1165   43.8184 H   0  0  0  0  0  0  0  0  0  0  0  0  # atno 9165 bound_to 2997
   42.6448   -3.1479   39.1381 LP  0  0  0  0  0  0  0  0  0  0  0  0  # atno 11896 bound_to 969 
   41.9075   -2.1253   38.1002 LP  0  0  0  0  0  0  0  0  0  0  0  0  # atno 11897 bound_to 969 
   37.3242   -4.3798   40.8628 LP  0  0  0  0  0  0  0  0  0  0  0  0  # atno 11898 bound_to 975 
   38.0930   -5.7355   40.3756 LP  0  0  0  0  0  0  0  0  0  0  0  0  # atno 11899 bound_to 975 
   40.3479    3.9059   42.6748 LP  0  0  0  0  0  0  0  0  0  0  0  0  # atno 11904 bound_to 962 
   41.4061    3.5977   41.4699 LP  0  0  0  0  0  0  0  0  0  0  0  0  # atno 11905 bound_to 962 
   33.7828   -3.9076   45.2799 LP  0  0  0  0  0  0  0  0  0  0  0  0  # atno 11912 bound_to 2997
   34.5347   -5.3119   44.9205 LP  0  0  0  0  0  0  0  0  0  0  0  0  # atno 11913 bound_to 2997
   26.6441   -0.6360   41.7931 LP  0  0  0  0  0  0  0  0  0  0  0  0  # atno 11922 bound_to 1497
   28.0775    0.1445   41.8448 LP  0  0  0  0  0  0  0  0  0  0  0  0  # atno 11923 bound_to 1497
   26.8595    0.0124   43.4299 LP  0  0  0  0  0  0  0  0  0  0  0  0  # atno 11930 bound_to 1220
   27.6668   -0.1913   44.8347 LP  0  0  0  0  0  0  0  0  0  0  0  0  # atno 11931 bound_to 1220

$$$$
****|SGG-4|sdf|1|dock54
  -GOLD-   9 72311483D 1   1.00000     0.00000

 46 48  0  0  0  0  0  0  0  0  1 V2000
   30.3459   -0.5130   38.2390 S   0  0  0  0  0  0  0  0  0  0  0  0
   30.9629    0.7720   37.2801 C   0  0  0  0  0  0  0  0  0  0  0  0
   32.1708    1.1854   37.5965 N   0  0  0  0  0  0  0  0  0  0  0  0
   32.6486    0.4483   38.6614 C   0  0  0  0  0  0  0  0  0  0  0  0
   31.8006   -0.5270   39.1509 C   0  0  0  0  0  0  0  0  0  0  0  0
   31.9839   -1.4680   40.2976 C   0  0  0  0  0  0  0  0  0  0  0  0
   33.6047   -1.2250   41.0939 S   0  0  0  0  0  0  0  0  0  0  0  0
   34.3183   -2.7947   40.7520 C   0  0  0  0  0  0  0  0  0  0  0  0
   34.6081   -3.6456   41.8077 N   0  0  0  0  0  0  0  0  0  0  0  0
   35.1840   -4.8858   41.5611 C   0  0  0  0  0  0  0  0  0  0  0  0
   35.4689   -5.7540   42.6174 O   0  0  0  0  0  0  0  0  0  0  0  0
   35.4723   -5.2386   40.3046 N   0  0  0  0  0  0  0  0  0  0  0  0
   35.1704   -4.3595   39.3414 C   0  0  0  0  0  0  0  0  0  0  0  0
   35.6189   -4.8146   37.6877 S   0  0  0  0  0  0  0  0  0  0  0  0
   37.2887   -4.1139   37.7257 C   0  0  0  0  0  0  0  0  0  0  0  0
   37.2871   -2.6484   38.0796 C   0  0  0  0  0  0  0  0  0  0  0  0
   37.8929   -2.1923   39.2563 C   0  0  0  0  0  0  0  0  0  0  0  0
   37.9144   -0.8282   39.5636 C   0  0  0  0  0  0  0  0  0  0  0  0
   37.3163    0.1099   38.7104 C   0  0  0  0  0  0  0  0  0  0  0  0
   36.7005   -0.3527   37.5386 C   0  0  0  0  0  0  0  0  0  0  0  0
   36.6831   -1.7146   37.2279 C   0  0  0  0  0  0  0  0  0  0  0  0
   36.1960   -2.0427   36.3117 H   0  0  0  0  0  0  0  0  0  0  0  0
   36.2305    0.3475   36.8512 H   0  0  0  0  0  0  0  0  0  0  0  0
   37.3496    1.6012   38.9963 C   0  0  0  0  0  0  0  0  0  0  0  0
   38.2325    1.8928   40.2116 C   0  0  0  0  0  0  0  0  0  0  0  0
   37.8324    1.4336   41.1224 H   0  0  0  0  0  0  0  0  0  0  0  0
   39.2466    1.5054   40.0615 H   0  0  0  0  0  0  0  0  0  0  0  0
   38.3097    2.9716   40.3840 H   0  0  0  0  0  0  0  0  0  0  0  0
   35.9573    2.2113   39.1788 C   0  0  0  0  0  0  0  0  0  0  0  0
   35.4899    1.9005   40.1193 H   0  0  0  0  0  0  0  0  0  0  0  0
   35.2913    1.9221   38.3585 H   0  0  0  0  0  0  0  0  0  0  0  0
   36.0190    3.3051   39.1911 H   0  0  0  0  0  0  0  0  0  0  0  0
   37.7988    2.1068   38.1308 H   0  0  0  0  0  0  0  0  0  0  0  0
   38.4123   -0.5091   40.4759 H   0  0  0  0  0  0  0  0  0  0  0  0
   38.3617   -2.8952   39.9415 H   0  0  0  0  0  0  0  0  0  0  0  0
   37.7729   -4.2378   36.7493 H   0  0  0  0  0  0  0  0  0  0  0  0
   37.8951   -4.6727   38.4484 H   0  0  0  0  0  0  0  0  0  0  0  0
   34.6070   -3.1561   39.5018 N   0  0  0  0  0  0  0  0  0  0  0  0
   34.3967   -3.3558   42.7523 H   0  0  0  0  0  0  0  0  0  0  0  0
   31.1930   -1.2862   41.0349 H   0  0  0  0  0  0  0  0  0  0  0  0
   31.9018   -2.5087   39.9660 H   0  0  0  0  0  0  0  0  0  0  0  0
   33.6373    0.6684   39.0468 H   0  0  0  0  0  0  0  0  0  0  0  0
   30.1357    1.3536   36.1887 C   0  0  0  0  0  0  0  0  0  0  0  0
   29.8229    0.5713   35.4895 H   0  0  0  0  0  0  0  0  0  0  0  0
   30.7134    2.0974   35.6309 H   0  0  0  0  0  0  0  0  0  0  0  0
   29.2333    1.8326   36.5817 H   0  0  0  0  0  0  0  0  0  0  0  0
  1  2  1  0  0  0  0
  1  5  1  0  0  0  0
  2  3  2  0  0  0  0
  2 43  1  0  0  0  0
  3  4  1  0  0  0  0
  4  5  2  0  0  0  0
  4 42  1  0  0  0  0
  5  6  1  0  0  0  0
  6  7  1  0  0  0  0
  6 40  1  0  0  0  0
  6 41  1  0  0  0  0
  7  8  1  0  0  0  0
  8  9  1  0  0  0  0
  8 38  2  0  0  0  0
  9 10  1  0  0  0  0
  9 39  1  0  0  0  0
 10 11  2  0  0  0  0
 10 12  1  0  0  0  0
 12 13  2  0  0  0  0
 13 14  1  0  0  0  0
 13 38  1  0  0  0  0
 14 15  1  0  0  0  0
 15 16  1  0  0  0  0
 15 36  1  0  0  0  0
 15 37  1  0  0  0  0
 16 17  1  0  0  0  0
 16 21  2  0  0  0  0
 17 18  2  0  0  0  0
 17 35  1  0  0  0  0
 18 19  1  0  0  0  0
 18 34  1  0  0  0  0
 19 20  2  0  0  0  0
 19 24  1  0  0  0  0
 20 21  1  0  0  0  0
 20 23  1  0  0  0  0
 21 22  1  0  0  0  0
 24 25  1  0  0  0  0
 24 29  1  0  0  0  0
 24 33  1  0  0  0  0
 25 26  1  0  0  0  0
 25 27  1  0  0  0  0
 25 28  1  0  0  0  0
 29 30  1  0  0  0  0
 29 31  1  0  0  0  0
 29 32  1  0  0  0  0
 43 44  1  0  0  0  0
 43 45  1  0  0  0  0
 43 46  1  0  0  0  0
M  END
> <Gold.Goldscore.Fitness>
67.7756

> <Gold.Goldscore.External.HBond>
1.4847

> <Gold.Protein.ActiveResidues>
 GLU87   ILE88   VAL90   ASN91   ALA92   ASP94   ASN95   ARG98   ILE118  ASN120 
 LYS123  GLY124  ILE125  ILE141  PHE142  THR147  SER148  SER149  ASN150  TYR151 
 GLY160  GLY161  ARG162  ASN163  GLY164  TYR165  GLY166  ALA167  LYS168  LEU169 
 THR181  THR215  ILE217  ILE317  GLN376  LYS378  ILE33   TYR34   MG903  

> <Gold.Goldscore.Internal.HBond>
0.0

> <Gold.Goldscore.Internal.Torsion.Weighted>
-4.6232

> <Gold.Protein.RotatedTorsions>
[ 8833 2752 2751 2750 ] final  -92.65 input   60.00 | X-H torsion
[ 6906  969  968  965 ] final -179.89 input   59.99 | X-H torsion
[ 6910  975  974  971 ] final  -12.12 input   60.00 | X-H torsion
[ 6897  962  961  958 ] final   71.11 input   60.00 | X-H torsion
[ 9084 2997 2996 2994 ] final  -38.60 input   60.00 | X-H torsion
[ 7406 1497 1496 1493 ] final  170.76 input   60.00 | X-H torsion
[ 7140 1220 1219 1216 ] final  115.27 input   60.00 | X-H torsion
[ 6926  995  994  992 ] final   25.13 input   60.0

> <Gold.Goldscore.Constraint.Score>
0.0

> <Gold.Id.Protein>
1ZXM|1ZXM_protein|mol2

> <Gold.Protein.RotatedAtoms>
   40.6750    3.3830   41.8637 H   0  0  0  0  0  0  0  0  0  0  0  0  # atno 6897 bound_to 962 
   42.5663   -2.5035   38.2571 H   0  0  0  0  0  0  0  0  0  0  0  0  # atno 6906 bound_to 969 
   38.8111   -4.3840   40.0676 H   0  0  0  0  0  0  0  0  0  0  0  0  # atno 6910 bound_to 975 
   45.8911    1.1244   38.6740 H   0  0  0  0  0  0  0  0  0  0  0  0  # atno 6926 bound_to 995 
   28.0475    0.1168   43.0607 H   0  0  0  0  0  0  0  0  0  0  0  0  # atno 7140 bound_to 1220
   28.2838   -0.9017   41.0

> <Gold.Version>
5.3.0

> <Gold.Goldscore.Internal.Correction>
-0.0166

> <Gold.Goldscore.Internal.Vdw>
-1.3472

> <Gold.Goldscore.Internal.Vdw.Weighted>
-1.3472

> <Gold.Goldscore.External.HBond.Weighted>
1.4847

> <Gold.Goldscore.External.Vdw.Weighted>
72.2447

> <Gold.Goldscore.Internal.HBond.Weighted>
0.0

> <Gold.Goldscore.Hbonds>
donor molecule, donor type, donor heavy atom, donor atom, acceptor molecule, acceptor atom, score
      L1  H     1    27       P1   757  0.74

> <Gold.Goldscore.External.Vdw>
52.5416

> <Gold.Goldscore.Internal.Torsion>
-4.6232

> <Gold.Goldscore.Internal.Correction.Weighted>
-0.0166

> <Gold.Version>
5.3.0

> <Gold.Id.Protein>
1ZXM|1ZXM_protein|mol2

> <Gold.ASP.Fitness>
24.8452

> <Gold.ASP.ASP>
30.8340

> <Gold.ASP.Map>
-154.1700

> <Gold.ASP.DEClash>
4.5843

> <Gold.ASP.DEInternal>
1.4044

> <Gold.ASP.Internal.Correction>
0.1091

> <Gold.Protein.RotatedTorsions>
[ 8924 2752 2751 2750 ] final  122.21 input   60.00 | X-H torsion
[ 6908  969  968  965 ] final -160.48 input   59.99 | X-H torsion
[ 6912  975  974  971 ] final   93.99 input   60.00 | X-H torsion
[ 6899  962  961  958 ] final   15.34 input   60.00 | X-H torsion
[ 9165 2997 2996 2994 ] final   38.60 input   60.00 | X-H torsion
[ 7410 1497 1496 1493 ] final -156.81 input   60.00 | X-H torsion
[ 7137 1220 1219 1216 ] final    8.53 input   60.00 | X-H torsion
[ 6928  995  994  992 ] final   15.00 input   60.00 | X-H torsion

> <Gold.Protein.ActiveResidues>
 GLU87   ILE88   VAL90   ASN91   ALA92   ASP94   ASN95   ARG98   ILE118  ASN120 
 LYS123  GLY124  ILE125  ILE141  PHE142  THR147  SER148  SER149  ASN150  TYR151 
 GLY160  GLY161  ARG162  ASN163  GLY164  TYR165  GLY166  ALA167  LYS168  LEU169 
 THR181  THR215  ILE217  ILE317  GLN376  LYS378  ILE33   TYR34   MG903  

> <Gold.Protein.RotatedAtoms>
   41.4247    3.6133   41.4743 H   0  0  0  0  0  0  0  0  0  0  0  0  # atno 6899 bound_to 962 
   42.7158   -2.7007   38.4530 H   0  0  0  0  0  0  0  0  0  0  0  0  # atno 6908 bound_to 969 
   38.1835   -5.7168   40.3307 H   0  0  0  0  0  0  0  0  0  0  0  0  # atno 6912 bound_to 975 
   46.0556    1.1247   38.6576 H   0  0  0  0  0  0  0  0  0  0  0  0  # atno 6928 bound_to 995 
   26.7437   -0.0485   43.7889 H   0  0  0  0  0  0  0  0  0  0  0  0  # atno 7137 bound_to 1220
   28.4486   -0.4679   41.2993 H   0  0  0  0  0  0  0  0  0  0  0  0  # atno 7410 bound_to 1497
   43.3920    0.6927   30.3275 H   0  0  0  0  0  0  0  0  0  0  0  0  # atno 8924 bound_to 2752
   43.5688   -0.8577   30.8864 H   0  0  0  0  0  0  0  0  0  0  0  0  # atno 8925 bound_to 2752
   44.0535   -0.4704   29.3494 H   0  0  0  0  0  0  0  0  0  0  0  0  # atno 8926 bound_to 2752
   34.6838   -4.6599   43.8633 H   0  0  0  0  0  0  0  0  0  0  0  0  # atno 9165 bound_to 2997
   41.1971   -2.1199   38.5178 LP  0  0  0  0  0  0  0  0  0  0  0  0  # atno 11896 bound_to 969 
   41.7338   -3.1410   39.6737 LP  0  0  0  0  0  0  0  0  0  0  0  0  # atno 11897 bound_to 969 
   38.7100   -4.1902   40.1300 LP  0  0  0  0  0  0  0  0  0  0  0  0  # atno 11898 bound_to 975 
   37.2864   -4.4743   40.8779 LP  0  0  0  0  0  0  0  0  0  0  0  0  # atno 11899 bound_to 975 
   41.6704    4.8312   42.5252 LP  0  0  0  0  0  0  0  0  0  0  0  0  # atno 11904 bound_to 962 
   40.3441    3.8881   42.6596 LP  0  0  0  0  0  0  0  0  0  0  0  0  # atno 11905 bound_to 962 
   33.8534   -3.6019   44.7794 LP  0  0  0  0  0  0  0  0  0  0  0  0  # atno 11912 bound_to 2997
   34.2461   -5.0704   45.3759 LP  0  0  0  0  0  0  0  0  0  0  0  0  # atno 11913 bound_to 2997
   27.0550   -1.3021   41.2004 LP  0  0  0  0  0  0  0  0  0  0  0  0  # atno 11922 bound_to 1497
   27.1341    0.0572   42.1019 LP  0  0  0  0  0  0  0  0  0  0  0  0  # atno 11923 bound_to 1497
   28.0425   -0.1663   44.7621 LP  0  0  0  0  0  0  0  0  0  0  0  0  # atno 11930 bound_to 1220
   28.2382    0.1042   43.1636 LP  0  0  0  0  0  0  0  0  0  0  0  0  # atno 11931 bound_to 1220

$$$$
****|SGG-4|sdf|1|dock95
  -GOLD-   9 72311523D 1   1.00000     0.00000

 46 48  0  0  0  0  0  0  0  0  1 V2000
   35.8223    2.4993   38.5727 S   0  0  0  0  0  0  0  0  0  0  0  0
   37.2124    1.6505   38.0263 C   0  0  0  0  0  0  0  0  0  0  0  0
   37.0701    0.3485   37.9059 N   0  0  0  0  0  0  0  0  0  0  0  0
   35.7870   -0.0125   38.2652 C   0  0  0  0  0  0  0  0  0  0  0  0
   34.9555    1.0197   38.6565 C   0  0  0  0  0  0  0  0  0  0  0  0
   33.5394    0.9805   39.1331 C   0  0  0  0  0  0  0  0  0  0  0  0
   32.4622    0.1460   37.9234 S   0  0  0  0  0  0  0  0  0  0  0  0
   31.7369   -1.0553   38.9823 C   0  0  0  0  0  0  0  0  0  0  0  0
   30.3768   -1.3061   38.8820 N   0  0  0  0  0  0  0  0  0  0  0  0
   29.7807   -2.2423   39.7177 C   0  0  0  0  0  0  0  0  0  0  0  0
   28.4136   -2.5096   39.6161 O   0  0  0  0  0  0  0  0  0  0  0  0
   30.5244   -2.8796   40.6273 N   0  0  0  0  0  0  0  0  0  0  0  0
   31.8275   -2.5766   40.6680 C   0  0  0  0  0  0  0  0  0  0  0  0
   32.7869   -3.3817   41.9228 S   0  0  0  0  0  0  0  0  0  0  0  0
   34.3782   -3.2807   41.0634 C   0  0  0  0  0  0  0  0  0  0  0  0
   34.9334   -4.6406   40.7241 C   0  0  0  0  0  0  0  0  0  0  0  0
   35.3699   -5.5105   41.7302 C   0  0  0  0  0  0  0  0  0  0  0  0
   35.8556   -6.7824   41.4107 C   0  0  0  0  0  0  0  0  0  0  0  0
   35.9321   -7.2079   40.0770 C   0  0  0  0  0  0  0  0  0  0  0  0
   35.5046   -6.3289   39.0716 C   0  0  0  0  0  0  0  0  0  0  0  0
   35.0142   -5.0601   39.3900 C   0  0  0  0  0  0  0  0  0  0  0  0
   34.6914   -4.4002   38.5871 H   0  0  0  0  0  0  0  0  0  0  0  0
   35.5454   -6.6275   38.0261 H   0  0  0  0  0  0  0  0  0  0  0  0
   36.4231   -8.5938   39.6963 C   0  0  0  0  0  0  0  0  0  0  0  0
   36.4039   -8.7688   38.1762 C   0  0  0  0  0  0  0  0  0  0  0  0
   35.3870   -8.7026   37.7738 H   0  0  0  0  0  0  0  0  0  0  0  0
   37.0070   -7.9968   37.6851 H   0  0  0  0  0  0  0  0  0  0  0  0
   36.8154   -9.7436   37.8937 H   0  0  0  0  0  0  0  0  0  0  0  0
   35.6430   -9.7190   40.3815 C   0  0  0  0  0  0  0  0  0  0  0  0
   34.6269   -9.8184   39.9849 H   0  0  0  0  0  0  0  0  0  0  0  0
   35.5694   -9.5452   41.4605 H   0  0  0  0  0  0  0  0  0  0  0  0
   36.1476  -10.6797   40.2301 H   0  0  0  0  0  0  0  0  0  0  0  0
   37.4655   -8.6922   40.0285 H   0  0  0  0  0  0  0  0  0  0  0  0
   36.1660   -7.4383   42.2202 H   0  0  0  0  0  0  0  0  0  0  0  0
   35.3279   -5.2085   42.7745 H   0  0  0  0  0  0  0  0  0  0  0  0
   35.1097   -2.7488   41.6840 H   0  0  0  0  0  0  0  0  0  0  0  0
   34.2543   -2.6882   40.1491 H   0  0  0  0  0  0  0  0  0  0  0  0
   32.4712   -1.6975   39.8907 N   0  0  0  0  0  0  0  0  0  0  0  0
   29.8278   -0.8039   38.1985 H   0  0  0  0  0  0  0  0  0  0  0  0
   33.5003    0.4340   40.0828 H   0  0  0  0  0  0  0  0  0  0  0  0
   33.1590    1.9922   39.3113 H   0  0  0  0  0  0  0  0  0  0  0  0
   35.5077   -1.0588   38.2225 H   0  0  0  0  0  0  0  0  0  0  0  0
   38.4731    2.3871   37.7402 C   0  0  0  0  0  0  0  0  0  0  0  0
   38.2923    3.1827   37.0102 H   0  0  0  0  0  0  0  0  0  0  0  0
   39.2228    1.7071   37.3237 H   0  0  0  0  0  0  0  0  0  0  0  0
   38.8817    2.8484   38.6449 H   0  0  0  0  0  0  0  0  0  0  0  0
  1  2  1  0  0  0  0
  1  5  1  0  0  0  0
  2  3  2  0  0  0  0
  2 43  1  0  0  0  0
  3  4  1  0  0  0  0
  4  5  2  0  0  0  0
  4 42  1  0  0  0  0
  5  6  1  0  0  0  0
  6  7  1  0  0  0  0
  6 40  1  0  0  0  0
  6 41  1  0  0  0  0
  7  8  1  0  0  0  0
  8  9  1  0  0  0  0
  8 38  2  0  0  0  0
  9 10  1  0  0  0  0
  9 39  1  0  0  0  0
 10 11  2  0  0  0  0
 10 12  1  0  0  0  0
 12 13  2  0  0  0  0
 13 14  1  0  0  0  0
 13 38  1  0  0  0  0
 14 15  1  0  0  0  0
 15 16  1  0  0  0  0
 15 36  1  0  0  0  0
 15 37  1  0  0  0  0
 16 17  1  0  0  0  0
 16 21  2  0  0  0  0
 17 18  2  0  0  0  0
 17 35  1  0  0  0  0
 18 19  1  0  0  0  0
 18 34  1  0  0  0  0
 19 20  2  0  0  0  0
 19 24  1  0  0  0  0
 20 21  1  0  0  0  0
 20 23  1  0  0  0  0
 21 22  1  0  0  0  0
 24 25  1  0  0  0  0
 24 29  1  0  0  0  0
 24 33  1  0  0  0  0
 25 26  1  0  0  0  0
 25 27  1  0  0  0  0
 25 28  1  0  0  0  0
 29 30  1  0  0  0  0
 29 31  1  0  0  0  0
 29 32  1  0  0  0  0
 43 44  1  0  0  0  0
 43 45  1  0  0  0  0
 43 46  1  0  0  0  0
M  END
> <Gold.Goldscore.Fitness>
67.7756

> <Gold.Goldscore.External.HBond>
1.4847

> <Gold.Protein.ActiveResidues>
 GLU87   ILE88   VAL90   ASN91   ALA92   ASP94   ASN95   ARG98   ILE118  ASN120 
 LYS123  GLY124  ILE125  ILE141  PHE142  THR147  SER148  SER149  ASN150  TYR151 
 GLY160  GLY161  ARG162  ASN163  GLY164  TYR165  GLY166  ALA167  LYS168  LEU169 
 THR181  THR215  ILE217  ILE317  GLN376  LYS378  ILE33   TYR34   MG903  

> <Gold.Goldscore.Internal.HBond>
0.0

> <Gold.Goldscore.Internal.Torsion.Weighted>
-4.6232

> <Gold.Protein.RotatedTorsions>
[ 8833 2752 2751 2750 ] final  -92.65 input   60.00 | X-H torsion
[ 6906  969  968  965 ] final -179.89 input   59.99 | X-H torsion
[ 6910  975  974  971 ] final  -12.12 input   60.00 | X-H torsion
[ 6897  962  961  958 ] final   71.11 input   60.00 | X-H torsion
[ 9084 2997 2996 2994 ] final  -38.60 input   60.00 | X-H torsion
[ 7406 1497 1496 1493 ] final  170.76 input   60.00 | X-H torsion
[ 7140 1220 1219 1216 ] final  115.27 input   60.00 | X-H torsion
[ 6926  995  994  992 ] final   25.13 input   60.0

> <Gold.Goldscore.Constraint.Score>
0.0

> <Gold.Id.Protein>
1ZXM|1ZXM_protein|mol2

> <Gold.Protein.RotatedAtoms>
   40.6750    3.3830   41.8637 H   0  0  0  0  0  0  0  0  0  0  0  0  # atno 6897 bound_to 962 
   42.5663   -2.5035   38.2571 H   0  0  0  0  0  0  0  0  0  0  0  0  # atno 6906 bound_to 969 
   38.8111   -4.3840   40.0676 H   0  0  0  0  0  0  0  0  0  0  0  0  # atno 6910 bound_to 975 
   45.8911    1.1244   38.6740 H   0  0  0  0  0  0  0  0  0  0  0  0  # atno 6926 bound_to 995 
   28.0475    0.1168   43.0607 H   0  0  0  0  0  0  0  0  0  0  0  0  # atno 7140 bound_to 1220
   28.2838   -0.9017   41.0

> <Gold.Version>
5.3.0

> <Gold.Goldscore.Internal.Correction>
-0.0166

> <Gold.Goldscore.Internal.Vdw>
-1.3472

> <Gold.Goldscore.Internal.Vdw.Weighted>
-1.3472

> <Gold.Goldscore.External.HBond.Weighted>
1.4847

> <Gold.Goldscore.External.Vdw.Weighted>
72.2447

> <Gold.Goldscore.Internal.HBond.Weighted>
0.0

> <Gold.Goldscore.Hbonds>
donor molecule, donor type, donor heavy atom, donor atom, acceptor molecule, acceptor atom, score
      L1  H     1    27       P1   757  0.74

> <Gold.Goldscore.External.Vdw>
52.5416

> <Gold.Goldscore.Internal.Torsion>
-4.6232

> <Gold.Goldscore.Internal.Correction.Weighted>
-0.0166

> <Gold.Version>
5.3.0

> <Gold.Id.Protein>
1ZXM|1ZXM_protein|mol2

> <Gold.ASP.Fitness>
24.5275

> <Gold.ASP.ASP>
30.1720

> <Gold.ASP.Map>
-150.8600

> <Gold.ASP.DEClash>
4.2934

> <Gold.ASP.DEInternal>
1.3512

> <Gold.ASP.Internal.Correction>
0.1072

> <Gold.Protein.RotatedTorsions>
[ 8924 2752 2751 2750 ] final  -13.77 input   60.00 | X-H torsion
[ 6908  969  968  965 ] final -145.57 input   59.99 | X-H torsion
[ 6912  975  974  971 ] final  -27.18 input   60.00 | X-H torsion
[ 6899  962  961  958 ] final   19.22 input   60.00 | X-H torsion
[ 9165 2997 2996 2994 ] final -117.17 input   60.00 | X-H torsion
[ 7410 1497 1496 1493 ] final  -69.40 input   60.00 | X-H torsion
[ 7137 1220 1219 1216 ] final -152.14 input   60.00 | X-H torsion
[ 6928  995  994  992 ] final   62.73 input   60.00 | X-H torsion

> <Gold.Protein.ActiveResidues>
 GLU87   ILE88   VAL90   ASN91   ALA92   ASP94   ASN95   ARG98   ILE118  ASN120 
 LYS123  GLY124  ILE125  ILE141  PHE142  THR147  SER148  SER149  ASN150  TYR151 
 GLY160  GLY161  ARG162  ASN163  GLY164  TYR165  GLY166  ALA167  LYS168  LEU169 
 THR181  THR215  ILE217  ILE317  GLN376  LYS378  ILE33   TYR34   MG903  

> <Gold.Protein.RotatedAtoms>
   41.3727    3.5779   41.4813 H   0  0  0  0  0  0  0  0  0  0  0  0  # atno 6899 bound_to 962 
   42.7670   -2.8497   38.6379 H   0  0  0  0  0  0  0  0  0  0  0  0  # atno 6908 bound_to 969 
   38.6960   -4.1801   40.1407 H   0  0  0  0  0  0  0  0  0  0  0  0  # atno 6912 bound_to 975 
   45.3653    1.1873   38.9633 H   0  0  0  0  0  0  0  0  0  0  0  0  # atno 6928 bound_to 995 
   28.5118   -0.0744   44.3176 H   0  0  0  0  0  0  0  0  0  0  0  0  # atno 7137 bound_to 1220
   27.6337    0.2132   42.0378 H   0  0  0  0  0  0  0  0  0  0  0  0  # atno 7410 bound_to 1497
   44.0669   -0.7069   29.4707 H   0  0  0  0  0  0  0  0  0  0  0  0  # atno 8924 bound_to 2752
   43.4798    0.7193   30.0778 H   0  0  0  0  0  0  0  0  0  0  0  0  # atno 8925 bound_to 2752
   43.4677   -0.6478   31.0149 H   0  0  0  0  0  0  0  0  0  0  0  0  # atno 8926 bound_to 2752
   33.7878   -3.9016   45.2682 H   0  0  0  0  0  0  0  0  0  0  0  0  # atno 9165 bound_to 2997
   41.3668   -2.0728   38.3481 LP  0  0  0  0  0  0  0  0  0  0  0  0  # atno 11896 bound_to 969 
   41.5125   -3.0380   39.6572 LP  0  0  0  0  0  0  0  0  0  0  0  0  # atno 11897 bound_to 969 
   37.2804   -4.4923   40.8801 LP  0  0  0  0  0  0  0  0  0  0  0  0  # atno 11898 bound_to 975 
   38.2000   -5.7197   40.3191 LP  0  0  0  0  0  0  0  0  0  0  0  0  # atno 11899 bound_to 975 
   41.7114    4.8188   42.4780 LP  0  0  0  0  0  0  0  0  0  0  0  0  # atno 11904 bound_to 962 
   40.3555    3.9361   42.6999 LP  0  0  0  0  0  0  0  0  0  0  0  0  # atno 11905 bound_to 962 
   34.5296   -5.3103   44.9315 LP  0  0  0  0  0  0  0  0  0  0  0  0  # atno 11912 bound_to 2997
   34.4723   -4.1256   43.8090 LP  0  0  0  0  0  0  0  0  0  0  0  0  # atno 11913 bound_to 2997
   28.2881   -0.9073   41.0560 LP  0  0  0  0  0  0  0  0  0  0  0  0  # atno 11922 bound_to 1497
   26.7217   -1.0236   41.5024 LP  0  0  0  0  0  0  0  0  0  0  0  0  # atno 11923 bound_to 1497
   27.6105    0.1133   42.9759 LP  0  0  0  0  0  0  0  0  0  0  0  0  # atno 11930 bound_to 1220
   26.8894   -0.1494   44.4173 LP  0  0  0  0  0  0  0  0  0  0  0  0  # atno 11931 bound_to 1220

$$$$
****|SGG-4|sdf|1|dock27
  -GOLD-   9 72311453D 1   1.00000     0.00000

 46 48  0  0  0  0  0  0  0  0  1 V2000
   38.2685   -0.7152   37.2669 S   0  0  0  0  0  0  0  0  0  0  0  0
   39.6504    0.2682   36.9934 C   0  0  0  0  0  0  0  0  0  0  0  0
   39.7454    1.3360   37.7554 N   0  0  0  0  0  0  0  0  0  0  0  0
   38.6647    1.3912   38.6125 C   0  0  0  0  0  0  0  0  0  0  0  0
   37.7505    0.3610   38.5003 C   0  0  0  0  0  0  0  0  0  0  0  0
   36.4705    0.1317   39.2373 C   0  0  0  0  0  0  0  0  0  0  0  0
   36.7782   -0.6129   40.8716 S   0  0  0  0  0  0  0  0  0  0  0  0
   35.7604   -2.0383   40.7215 C   0  0  0  0  0  0  0  0  0  0  0  0
   34.6450   -2.1567   41.5368 N   0  0  0  0  0  0  0  0  0  0  0  0
   33.8339   -3.2809   41.4436 C   0  0  0  0  0  0  0  0  0  0  0  0
   32.7021   -3.4033   42.2528 O   0  0  0  0  0  0  0  0  0  0  0  0
   34.1503   -4.2500   40.5792 N   0  0  0  0  0  0  0  0  0  0  0  0
   35.2466   -4.0661   39.8337 C   0  0  0  0  0  0  0  0  0  0  0  0
   35.6890   -5.3892   38.7397 S   0  0  0  0  0  0  0  0  0  0  0  0
   34.5097   -4.9766   37.4283 C   0  0  0  0  0  0  0  0  0  0  0  0
   33.8557   -3.6360   37.6469 C   0  0  0  0  0  0  0  0  0  0  0  0
   32.6050   -3.5389   38.2682 C   0  0  0  0  0  0  0  0  0  0  0  0
   32.0176   -2.2903   38.4952 C   0  0  0  0  0  0  0  0  0  0  0  0
   32.6589   -1.1107   38.0915 C   0  0  0  0  0  0  0  0  0  0  0  0
   33.9062   -1.2133   37.4591 C   0  0  0  0  0  0  0  0  0  0  0  0
   34.4964   -2.4598   37.2365 C   0  0  0  0  0  0  0  0  0  0  0  0
   35.4646   -2.5067   36.7419 H   0  0  0  0  0  0  0  0  0  0  0  0
   34.4345   -0.3185   37.1366 H   0  0  0  0  0  0  0  0  0  0  0  0
   32.0656    0.2631   38.3515 C   0  0  0  0  0  0  0  0  0  0  0  0
   30.5931    0.2966   37.9367 C   0  0  0  0  0  0  0  0  0  0  0  0
   30.4715    0.1291   36.8608 H   0  0  0  0  0  0  0  0  0  0  0  0
   30.0204   -0.4770   38.4607 H   0  0  0  0  0  0  0  0  0  0  0  0
   30.1446    1.2657   38.1797 H   0  0  0  0  0  0  0  0  0  0  0  0
   32.8452    1.3942   37.6755 C   0  0  0  0  0  0  0  0  0  0  0  0
   32.7171    1.3917   36.5878 H   0  0  0  0  0  0  0  0  0  0  0  0
   33.9165    1.3154   37.8900 H   0  0  0  0  0  0  0  0  0  0  0  0
   32.5002    2.3672   38.0424 H   0  0  0  0  0  0  0  0  0  0  0  0
   32.1106    0.4578   39.4317 H   0  0  0  0  0  0  0  0  0  0  0  0
   31.0550   -2.2530   38.9993 H   0  0  0  0  0  0  0  0  0  0  0  0
   32.0795   -4.4357   38.5891 H   0  0  0  0  0  0  0  0  0  0  0  0
   33.7268   -5.7426   37.3693 H   0  0  0  0  0  0  0  0  0  0  0  0
   35.0298   -4.9863   36.4630 H   0  0  0  0  0  0  0  0  0  0  0  0
   36.0667   -3.0088   39.8605 N   0  0  0  0  0  0  0  0  0  0  0  0
   34.4298   -1.4207   42.1947 H   0  0  0  0  0  0  0  0  0  0  0  0
   35.9627    1.0939   39.3731 H   0  0  0  0  0  0  0  0  0  0  0  0
   35.8031   -0.5232   38.6668 H   0  0  0  0  0  0  0  0  0  0  0  0
   38.5928    2.2181   39.3094 H   0  0  0  0  0  0  0  0  0  0  0  0
   40.6332   -0.1008   35.9391 C   0  0  0  0  0  0  0  0  0  0  0  0
   41.0070   -1.1165   36.1053 H   0  0  0  0  0  0  0  0  0  0  0  0
   41.4870    0.5837   35.9610 H   0  0  0  0  0  0  0  0  0  0  0  0
   40.1825   -0.0681   34.9421 H   0  0  0  0  0  0  0  0  0  0  0  0
  1  2  1  0  0  0  0
  1  5  1  0  0  0  0
  2  3  2  0  0  0  0
  2 43  1  0  0  0  0
  3  4  1  0  0  0  0
  4  5  2  0  0  0  0
  4 42  1  0  0  0  0
  5  6  1  0  0  0  0
  6  7  1  0  0  0  0
  6 40  1  0  0  0  0
  6 41  1  0  0  0  0
  7  8  1  0  0  0  0
  8  9  1  0  0  0  0
  8 38  2  0  0  0  0
  9 10  1  0  0  0  0
  9 39  1  0  0  0  0
 10 11  2  0  0  0  0
 10 12  1  0  0  0  0
 12 13  2  0  0  0  0
 13 14  1  0  0  0  0
 13 38  1  0  0  0  0
 14 15  1  0  0  0  0
 15 16  1  0  0  0  0
 15 36  1  0  0  0  0
 15 37  1  0  0  0  0
 16 17  1  0  0  0  0
 16 21  2  0  0  0  0
 17 18  2  0  0  0  0
 17 35  1  0  0  0  0
 18 19  1  0  0  0  0
 18 34  1  0  0  0  0
 19 20  2  0  0  0  0
 19 24  1  0  0  0  0
 20 21  1  0  0  0  0
 20 23  1  0  0  0  0
 21 22  1  0  0  0  0
 24 25  1  0  0  0  0
 24 29  1  0  0  0  0
 24 33  1  0  0  0  0
 25 26  1  0  0  0  0
 25 27  1  0  0  0  0
 25 28  1  0  0  0  0
 29 30  1  0  0  0  0
 29 31  1  0  0  0  0
 29 32  1  0  0  0  0
 43 44  1  0  0  0  0
 43 45  1  0  0  0  0
 43 46  1  0  0  0  0
M  END
> <Gold.Goldscore.Fitness>
67.7756

> <Gold.Goldscore.External.HBond>
1.4847

> <Gold.Protein.ActiveResidues>
 GLU87   ILE88   VAL90   ASN91   ALA92   ASP94   ASN95   ARG98   ILE118  ASN120 
 LYS123  GLY124  ILE125  ILE141  PHE142  THR147  SER148  SER149  ASN150  TYR151 
 GLY160  GLY161  ARG162  ASN163  GLY164  TYR165  GLY166  ALA167  LYS168  LEU169 
 THR181  THR215  ILE217  ILE317  GLN376  LYS378  ILE33   TYR34   MG903  

> <Gold.Goldscore.Internal.HBond>
0.0

> <Gold.Goldscore.Internal.Torsion.Weighted>
-4.6232

> <Gold.Protein.RotatedTorsions>
[ 8833 2752 2751 2750 ] final  -92.65 input   60.00 | X-H torsion
[ 6906  969  968  965 ] final -179.89 input   59.99 | X-H torsion
[ 6910  975  974  971 ] final  -12.12 input   60.00 | X-H torsion
[ 6897  962  961  958 ] final   71.11 input   60.00 | X-H torsion
[ 9084 2997 2996 2994 ] final  -38.60 input   60.00 | X-H torsion
[ 7406 1497 1496 1493 ] final  170.76 input   60.00 | X-H torsion
[ 7140 1220 1219 1216 ] final  115.27 input   60.00 | X-H torsion
[ 6926  995  994  992 ] final   25.13 input   60.0

> <Gold.Goldscore.Constraint.Score>
0.0

> <Gold.Id.Protein>
1ZXM|1ZXM_protein|mol2

> <Gold.Protein.RotatedAtoms>
   40.6750    3.3830   41.8637 H   0  0  0  0  0  0  0  0  0  0  0  0  # atno 6897 bound_to 962 
   42.5663   -2.5035   38.2571 H   0  0  0  0  0  0  0  0  0  0  0  0  # atno 6906 bound_to 969 
   38.8111   -4.3840   40.0676 H   0  0  0  0  0  0  0  0  0  0  0  0  # atno 6910 bound_to 975 
   45.8911    1.1244   38.6740 H   0  0  0  0  0  0  0  0  0  0  0  0  # atno 6926 bound_to 995 
   28.0475    0.1168   43.0607 H   0  0  0  0  0  0  0  0  0  0  0  0  # atno 7140 bound_to 1220
   28.2838   -0.9017   41.0

> <Gold.Version>
5.3.0

> <Gold.Goldscore.Internal.Correction>
-0.0166

> <Gold.Goldscore.Internal.Vdw>
-1.3472

> <Gold.Goldscore.Internal.Vdw.Weighted>
-1.3472

> <Gold.Goldscore.External.HBond.Weighted>
1.4847

> <Gold.Goldscore.External.Vdw.Weighted>
72.2447

> <Gold.Goldscore.Internal.HBond.Weighted>
0.0

> <Gold.Goldscore.Hbonds>
donor molecule, donor type, donor heavy atom, donor atom, acceptor molecule, acceptor atom, score
      L1  H     1    27       P1   757  0.74

> <Gold.Goldscore.External.Vdw>
52.5416

> <Gold.Goldscore.Internal.Torsion>
-4.6232

> <Gold.Goldscore.Internal.Correction.Weighted>
-0.0166

> <Gold.Version>
5.3.0

> <Gold.Id.Protein>
1ZXM|1ZXM_protein|mol2

> <Gold.ASP.Fitness>
24.4926

> <Gold.ASP.ASP>
28.7700

> <Gold.ASP.Map>
-143.8500

> <Gold.ASP.DEClash>
0.2269

> <Gold.ASP.DEInternal>
4.0505

> <Gold.ASP.Internal.Correction>
0.1091

> <Gold.Protein.RotatedTorsions>
[ 8924 2752 2751 2750 ] final   62.14 input   60.00 | X-H torsion
[ 6908  969  968  965 ] final -115.19 input   59.99 | X-H torsion
[ 6912  975  974  971 ] final  160.66 input   60.00 | X-H torsion
[ 6899  962  961  958 ] final   -7.97 input   60.00 | X-H torsion
[ 9165 2997 2996 2994 ] final  -11.24 input   60.00 | X-H torsion
[ 7410 1497 1496 1493 ] final  136.88 input   60.00 | X-H torsion
[ 7137 1220 1219 1216 ] final  163.62 input   60.00 | X-H torsion
[ 6928  995  994  992 ] final -158.87 input   60.00 | X-H torsion

> <Gold.Protein.ActiveResidues>
 GLU87   ILE88   VAL90   ASN91   ALA92   ASP94   ASN95   ARG98   ILE118  ASN120 
 LYS123  GLY124  ILE125  ILE141  PHE142  THR147  SER148  SER149  ASN150  TYR151 
 GLY160  GLY161  ARG162  ASN163  GLY164  TYR165  GLY166  ALA167  LYS168  LEU169 
 THR181  THR215  ILE217  ILE317  GLN376  LYS378  ILE33   TYR34   MG903  

> <Gold.Protein.RotatedAtoms>
   41.7030    3.8678   41.5046 H   0  0  0  0  0  0  0  0  0  0  0  0  # atno 6899 bound_to 962 
   42.6881   -3.1025   39.0509 H   0  0  0  0  0  0  0  0  0  0  0  0  # atno 6908 bound_to 969 
   37.3601   -5.3102   40.7948 H   0  0  0  0  0  0  0  0  0  0  0  0  # atno 6912 bound_to 975 
   46.1690    1.6133   40.4588 H   0  0  0  0  0  0  0  0  0  0  0  0  # atno 6928 bound_to 995 
   28.5622    0.0417   43.6241 H   0  0  0  0  0  0  0  0  0  0  0  0  # atno 7137 bound_to 1220
   27.8681   -1.2425   40.9652 H   0  0  0  0  0  0  0  0  0  0  0  0  # atno 7410 bound_to 1497
   43.7745    0.4332   29.4884 H   0  0  0  0  0  0  0  0  0  0  0  0  # atno 8924 bound_to 2752
   43.2892    0.0479   31.0257 H   0  0  0  0  0  0  0  0  0  0  0  0  # atno 8925 bound_to 2752
   43.9506   -1.1165   30.0491 H   0  0  0  0  0  0  0  0  0  0  0  0  # atno 8926 bound_to 2752
   34.3625   -3.9398   43.8889 H   0  0  0  0  0  0  0  0  0  0  0  0  # atno 9165 bound_to 2997
   41.8056   -2.0986   38.1227 LP  0  0  0  0  0  0  0  0  0  0  0  0  # atno 11896 bound_to 969 
   41.1532   -2.7576   39.4668 LP  0  0  0  0  0  0  0  0  0  0  0  0  # atno 11897 bound_to 969 
   38.7928   -5.2182   40.0288 LP  0  0  0  0  0  0  0  0  0  0  0  0  # atno 11898 bound_to 975 
   38.0329   -3.8558   40.5116 LP  0  0  0  0  0  0  0  0  0  0  0  0  # atno 11899 bound_to 975 
   41.3805    4.8356   42.7724 LP  0  0  0  0  0  0  0  0  0  0  0  0  # atno 11904 bound_to 962 
   40.3537    3.6274   42.3819 LP  0  0  0  0  0  0  0  0  0  0  0  0  # atno 11905 bound_to 962 
   33.8048   -4.0813   45.4111 LP  0  0  0  0  0  0  0  0  0  0  0  0  # atno 11912 bound_to 2997
   34.6184   -5.3162   44.7184 LP  0  0  0  0  0  0  0  0  0  0  0  0  # atno 11913 bound_to 2997
   26.6514   -0.5869   41.8241 LP  0  0  0  0  0  0  0  0  0  0  0  0  # atno 11922 bound_to 1497
   28.1224    0.1221   41.8145 LP  0  0  0  0  0  0  0  0  0  0  0  0  # atno 11923 bound_to 1497
   26.9721    0.0413   43.2784 LP  0  0  0  0  0  0  0  0  0  0  0  0  # atno 11930 bound_to 1220
   27.4770   -0.1944   44.8134 LP  0  0  0  0  0  0  0  0  0  0  0  0  # atno 11931 bound_to 1220

$$$$
****|SGG-4|sdf|1|dock10
  -GOLD-   9 72311443D 1   1.00000     0.00000

 46 48  0  0  0  0  0  0  0  0  1 V2000
   36.2580   -7.8926   40.0796 S   0  0  0  0  0  0  0  0  0  0  0  0
   35.8208   -9.2498   39.1213 C   0  0  0  0  0  0  0  0  0  0  0  0
   35.3295   -8.9700   37.9337 N   0  0  0  0  0  0  0  0  0  0  0  0
   35.2913   -7.6012   37.7589 C   0  0  0  0  0  0  0  0  0  0  0  0
   35.7569   -6.8432   38.8165 C   0  0  0  0  0  0  0  0  0  0  0  0
   35.8255   -5.3584   38.9736 C   0  0  0  0  0  0  0  0  0  0  0  0
   34.5979   -4.5284   37.9134 S   0  0  0  0  0  0  0  0  0  0  0  0
   33.5400   -3.8898   39.1638 C   0  0  0  0  0  0  0  0  0  0  0  0
   33.9015   -4.0444   40.4934 N   0  0  0  0  0  0  0  0  0  0  0  0
   33.0741   -3.5584   41.4982 C   0  0  0  0  0  0  0  0  0  0  0  0
   33.4356   -3.6996   42.8399 O   0  0  0  0  0  0  0  0  0  0  0  0
   31.9234   -2.9622   41.1713 N   0  0  0  0  0  0  0  0  0  0  0  0
   31.6409   -2.8588   39.8670 C   0  0  0  0  0  0  0  0  0  0  0  0
   30.0813   -2.1248   39.4523 S   0  0  0  0  0  0  0  0  0  0  0  0
   30.7155   -0.9898   38.1913 C   0  0  0  0  0  0  0  0  0  0  0  0
   32.1292   -0.5497   38.4754 C   0  0  0  0  0  0  0  0  0  0  0  0
   32.4622    0.0579   39.6918 C   0  0  0  0  0  0  0  0  0  0  0  0
   33.7814    0.4363   39.9611 C   0  0  0  0  0  0  0  0  0  0  0  0
   34.7949    0.2315   39.0144 C   0  0  0  0  0  0  0  0  0  0  0  0
   34.4546   -0.3669   37.7928 C   0  0  0  0  0  0  0  0  0  0  0  0
   33.1382   -0.7502   37.5247 C   0  0  0  0  0  0  0  0  0  0  0  0
   32.9053   -1.2109   36.5667 H   0  0  0  0  0  0  0  0  0  0  0  0
   35.2165   -0.5453   37.0367 H   0  0  0  0  0  0  0  0  0  0  0  0
   36.2431    0.5997   39.2864 C   0  0  0  0  0  0  0  0  0  0  0  0
   36.8240   -0.2921   40.3858 C   0  0  0  0  0  0  0  0  0  0  0  0
   36.3058   -0.1479   41.3402 H   0  0  0  0  0  0  0  0  0  0  0  0
   36.7385   -1.3512   40.1175 H   0  0  0  0  0  0  0  0  0  0  0  0
   37.8855   -0.0722   40.5419 H   0  0  0  0  0  0  0  0  0  0  0  0
   36.4345    2.0792   39.6308 C   0  0  0  0  0  0  0  0  0  0  0  0
   36.0401    2.3270   40.6221 H   0  0  0  0  0  0  0  0  0  0  0  0
   35.9339    2.7210   38.8976 H   0  0  0  0  0  0  0  0  0  0  0  0
   37.4995    2.3361   39.6299 H   0  0  0  0  0  0  0  0  0  0  0  0
   36.8217    0.4171   38.3706 H   0  0  0  0  0  0  0  0  0  0  0  0
   34.0061    0.8864   40.9249 H   0  0  0  0  0  0  0  0  0  0  0  0
   31.6979    0.2350   40.4453 H   0  0  0  0  0  0  0  0  0  0  0  0
   30.0776   -0.0996   38.1288 H   0  0  0  0  0  0  0  0  0  0  0  0
   30.6658   -1.4793   37.2114 H   0  0  0  0  0  0  0  0  0  0  0  0
   32.3917   -3.2915   38.8470 N   0  0  0  0  0  0  0  0  0  0  0  0
   34.7681   -4.5109   40.7220 H   0  0  0  0  0  0  0  0  0  0  0  0
   35.6237   -5.1032   40.0207 H   0  0  0  0  0  0  0  0  0  0  0  0
   36.8242   -4.9846   38.7229 H   0  0  0  0  0  0  0  0  0  0  0  0
   34.9079   -7.2045   36.8261 H   0  0  0  0  0  0  0  0  0  0  0  0
   35.9908  -10.6278   39.6560 C   0  0  0  0  0  0  0  0  0  0  0  0
   37.0284  -10.7913   39.9649 H   0  0  0  0  0  0  0  0  0  0  0  0
   35.7448  -11.3658   38.8860 H   0  0  0  0  0  0  0  0  0  0  0  0
   35.3502  -10.8017   40.5264 H   0  0  0  0  0  0  0  0  0  0  0  0
  1  2  1  0  0  0  0
  1  5  1  0  0  0  0
  2  3  2  0  0  0  0
  2 43  1  0  0  0  0
  3  4  1  0  0  0  0
  4  5  2  0  0  0  0
  4 42  1  0  0  0  0
  5  6  1  0  0  0  0
  6  7  1  0  0  0  0
  6 40  1  0  0  0  0
  6 41  1  0  0  0  0
  7  8  1  0  0  0  0
  8  9  1  0  0  0  0
  8 38  2  0  0  0  0
  9 10  1  0  0  0  0
  9 39  1  0  0  0  0
 10 11  2  0  0  0  0
 10 12  1  0  0  0  0
 12 13  2  0  0  0  0
 13 14  1  0  0  0  0
 13 38  1  0  0  0  0
 14 15  1  0  0  0  0
 15 16  1  0  0  0  0
 15 36  1  0  0  0  0
 15 37  1  0  0  0  0
 16 17  1  0  0  0  0
 16 21  2  0  0  0  0
 17 18  2  0  0  0  0
 17 35  1  0  0  0  0
 18 19  1  0  0  0  0
 18 34  1  0  0  0  0
 19 20  2  0  0  0  0
 19 24  1  0  0  0  0
 20 21  1  0  0  0  0
 20 23  1  0  0  0  0
 21 22  1  0  0  0  0
 24 25  1  0  0  0  0
 24 29  1  0  0  0  0
 24 33  1  0  0  0  0
 25 26  1  0  0  0  0
 25 27  1  0  0  0  0
 25 28  1  0  0  0  0
 29 30  1  0  0  0  0
 29 31  1  0  0  0  0
 29 32  1  0  0  0  0
 43 44  1  0  0  0  0
 43 45  1  0  0  0  0
 43 46  1  0  0  0  0
M  END
> <Gold.Goldscore.Fitness>
67.7756

> <Gold.Goldscore.External.HBond>
1.4847

> <Gold.Protein.ActiveResidues>
 GLU87   ILE88   VAL90   ASN91   ALA92   ASP94   ASN95   ARG98   ILE118  ASN120 
 LYS123  GLY124  ILE125  ILE141  PHE142  THR147  SER148  SER149  ASN150  TYR151 
 GLY160  GLY161  ARG162  ASN163  GLY164  TYR165  GLY166  ALA167  LYS168  LEU169 
 THR181  THR215  ILE217  ILE317  GLN376  LYS378  ILE33   TYR34   MG903  

> <Gold.Goldscore.Internal.HBond>
0.0

> <Gold.Goldscore.Internal.Torsion.Weighted>
-4.6232

> <Gold.Protein.RotatedTorsions>
[ 8833 2752 2751 2750 ] final  -92.65 input   60.00 | X-H torsion
[ 6906  969  968  965 ] final -179.89 input   59.99 | X-H torsion
[ 6910  975  974  971 ] final  -12.12 input   60.00 | X-H torsion
[ 6897  962  961  958 ] final   71.11 input   60.00 | X-H torsion
[ 9084 2997 2996 2994 ] final  -38.60 input   60.00 | X-H torsion
[ 7406 1497 1496 1493 ] final  170.76 input   60.00 | X-H torsion
[ 7140 1220 1219 1216 ] final  115.27 input   60.00 | X-H torsion
[ 6926  995  994  992 ] final   25.13 input   60.0

> <Gold.Goldscore.Constraint.Score>
0.0

> <Gold.Id.Protein>
1ZXM|1ZXM_protein|mol2

> <Gold.Protein.RotatedAtoms>
   40.6750    3.3830   41.8637 H   0  0  0  0  0  0  0  0  0  0  0  0  # atno 6897 bound_to 962 
   42.5663   -2.5035   38.2571 H   0  0  0  0  0  0  0  0  0  0  0  0  # atno 6906 bound_to 969 
   38.8111   -4.3840   40.0676 H   0  0  0  0  0  0  0  0  0  0  0  0  # atno 6910 bound_to 975 
   45.8911    1.1244   38.6740 H   0  0  0  0  0  0  0  0  0  0  0  0  # atno 6926 bound_to 995 
   28.0475    0.1168   43.0607 H   0  0  0  0  0  0  0  0  0  0  0  0  # atno 7140 bound_to 1220
   28.2838   -0.9017   41.0

> <Gold.Version>
5.3.0

> <Gold.Goldscore.Internal.Correction>
-0.0166

> <Gold.Goldscore.Internal.Vdw>
-1.3472

> <Gold.Goldscore.Internal.Vdw.Weighted>
-1.3472

> <Gold.Goldscore.External.HBond.Weighted>
1.4847

> <Gold.Goldscore.External.Vdw.Weighted>
72.2447

> <Gold.Goldscore.Internal.HBond.Weighted>
0.0

> <Gold.Goldscore.Hbonds>
donor molecule, donor type, donor heavy atom, donor atom, acceptor molecule, acceptor atom, score
      L1  H     1    27       P1   757  0.74

> <Gold.Goldscore.External.Vdw>
52.5416

> <Gold.Goldscore.Internal.Torsion>
-4.6232

> <Gold.Goldscore.Internal.Correction.Weighted>
-0.0166

> <Gold.Version>
5.3.0

> <Gold.Id.Protein>
1ZXM|1ZXM_protein|mol2

> <Gold.ASP.Fitness>
23.9562

> <Gold.ASP.ASP>
29.7760

> <Gold.ASP.Map>
-148.8800

> <Gold.ASP.DEClash>
1.3354

> <Gold.ASP.DEInternal>
4.4844

> <Gold.ASP.Internal.Correction>
0.1091

> <Gold.Protein.RotatedTorsions>
[ 8924 2752 2751 2750 ] final   33.85 input   60.00 | X-H torsion
[ 6908  969  968  965 ] final -107.68 input   59.99 | X-H torsion
[ 6912  975  974  971 ] final -107.44 input   60.00 | X-H torsion
[ 6899  962  961  958 ] final   37.44 input   60.00 | X-H torsion
[ 9165 2997 2996 2994 ] final -131.37 input   60.00 | X-H torsion
[ 7410 1497 1496 1493 ] final   31.45 input   60.00 | X-H torsion
[ 7137 1220 1219 1216 ] final   10.64 input   60.00 | X-H torsion
[ 6928  995  994  992 ] final  -81.50 input   60.00 | X-H torsion

> <Gold.Protein.ActiveResidues>
 GLU87   ILE88   VAL90   ASN91   ALA92   ASP94   ASN95   ARG98   ILE118  ASN120 
 LYS123  GLY124  ILE125  ILE141  PHE142  THR147  SER148  SER149  ASN150  TYR151 
 GLY160  GLY161  ARG162  ASN163  GLY164  TYR165  GLY166  ALA167  LYS168  LEU169 
 THR181  THR215  ILE217  ILE317  GLN376  LYS378  ILE33   TYR34   MG903  

> <Gold.Protein.RotatedAtoms>
   41.1184    3.4463   41.5580 H   0  0  0  0  0  0  0  0  0  0  0  0  # atno 6899 bound_to 962 
   42.6324   -3.1480   39.1501 H   0  0  0  0  0  0  0  0  0  0  0  0  # atno 6908 bound_to 969 
   37.6488   -3.9984   40.7124 H   0  0  0  0  0  0  0  0  0  0  0  0  # atno 6912 bound_to 975 
   46.9929    1.4190   39.6507 H   0  0  0  0  0  0  0  0  0  0  0  0  # atno 6928 bound_to 995 
   26.7485   -0.0428   43.7552 H   0  0  0  0  0  0  0  0  0  0  0  0  # atno 7137 bound_to 1220
   26.6495   -0.7828   41.6882 H   0  0  0  0  0  0  0  0  0  0  0  0  # atno 7410 bound_to 1497
   43.9432    0.0376   29.3048 H   0  0  0  0  0  0  0  0  0  0  0  0  # atno 8924 bound_to 2752
   43.2867    0.4409   30.7723 H   0  0  0  0  0  0  0  0  0  0  0  0  # atno 8925 bound_to 2752
   43.7846   -1.1139   30.4862 H   0  0  0  0  0  0  0  0  0  0  0  0  # atno 8926 bound_to 2752
   33.8103   -4.0848   45.4079 H   0  0  0  0  0  0  0  0  0  0  0  0  # atno 9165 bound_to 2997
   41.9225   -2.1298   38.0978 LP  0  0  0  0  0  0  0  0  0  0  0  0  # atno 11896 bound_to 969 
   41.0925   -2.6806   39.3917 LP  0  0  0  0  0  0  0  0  0  0  0  0  # atno 11897 bound_to 969 
   37.6440   -5.6232   40.6226 LP  0  0  0  0  0  0  0  0  0  0  0  0  # atno 11898 bound_to 975 
   38.8910   -4.7719   40.0007 LP  0  0  0  0  0  0  0  0  0  0  0  0  # atno 11899 bound_to 975 
   41.8668    4.7182   42.2438 LP  0  0  0  0  0  0  0  0  0  0  0  0  # atno 11904 bound_to 962 
   40.4562    4.1693   42.8568 LP  0  0  0  0  0  0  0  0  0  0  0  0  # atno 11905 bound_to 962 
   34.6191   -5.3160   44.7163 LP  0  0  0  0  0  0  0  0  0  0  0  0  # atno 11912 bound_to 2997
   34.3600   -3.9354   43.8835 LP  0  0  0  0  0  0  0  0  0  0  0  0  # atno 11913 bound_to 2997
   27.9267    0.1959   41.9305 LP  0  0  0  0  0  0  0  0  0  0  0  0  # atno 11922 bound_to 1497
   28.0743   -1.1237   40.9800 LP  0  0  0  0  0  0  0  0  0  0  0  0  # atno 11923 bound_to 1497
   28.0103   -0.1695   44.7748 LP  0  0  0  0  0  0  0  0  0  0  0  0  # atno 11930 bound_to 1220
   28.2656    0.1016   43.1849 LP  0  0  0  0  0  0  0  0  0  0  0  0  # atno 11931 bound_to 1220

$$$$
****|SGG-4|sdf|1|dock62
  -GOLD-   9 72311483D 1   1.00000     0.00000

 46 48  0  0  0  0  0  0  0  0  1 V2000
   38.4093   -0.3534   37.4552 S   0  0  0  0  0  0  0  0  0  0  0  0
   39.1483    1.1228   36.9796 C   0  0  0  0  0  0  0  0  0  0  0  0
   38.6121    2.2129   37.4837 N   0  0  0  0  0  0  0  0  0  0  0  0
   37.5503    1.8730   38.2979 C   0  0  0  0  0  0  0  0  0  0  0  0
   37.2838    0.5218   38.4119 C   0  0  0  0  0  0  0  0  0  0  0  0
   36.2050   -0.1810   39.1711 C   0  0  0  0  0  0  0  0  0  0  0  0
   36.9009   -1.4509   40.2770 S   0  0  0  0  0  0  0  0  0  0  0  0
   35.7672   -2.7538   39.9490 C   0  0  0  0  0  0  0  0  0  0  0  0
   36.2448   -3.9430   39.4197 N   0  0  0  0  0  0  0  0  0  0  0  0
   35.3646   -4.9812   39.1410 C   0  0  0  0  0  0  0  0  0  0  0  0
   35.8383   -6.1867   38.6183 O   0  0  0  0  0  0  0  0  0  0  0  0
   34.0581   -4.8144   39.3685 N   0  0  0  0  0  0  0  0  0  0  0  0
   33.6740   -3.6354   39.8723 C   0  0  0  0  0  0  0  0  0  0  0  0
   31.9317   -3.4063   40.1066 S   0  0  0  0  0  0  0  0  0  0  0  0
   31.9960   -1.6209   40.4051 C   0  0  0  0  0  0  0  0  0  0  0  0
   31.5287   -0.8237   39.2139 C   0  0  0  0  0  0  0  0  0  0  0  0
   31.8729    0.5258   39.0722 C   0  0  0  0  0  0  0  0  0  0  0  0
   31.4616    1.2516   37.9497 C   0  0  0  0  0  0  0  0  0  0  0  0
   30.6827    0.6500   36.9512 C   0  0  0  0  0  0  0  0  0  0  0  0
   30.3306   -0.6988   37.1029 C   0  0  0  0  0  0  0  0  0  0  0  0
   30.7454   -1.4263   38.2212 C   0  0  0  0  0  0  0  0  0  0  0  0
   30.4547   -2.4711   38.3110 H   0  0  0  0  0  0  0  0  0  0  0  0
   29.7310   -1.1992   36.3454 H   0  0  0  0  0  0  0  0  0  0  0  0
   30.2466    1.3985   35.7037 C   0  0  0  0  0  0  0  0  0  0  0  0
   30.9066    2.7780   35.6500 C   0  0  0  0  0  0  0  0  0  0  0  0
   30.5941    3.4094   36.4890 H   0  0  0  0  0  0  0  0  0  0  0  0
   31.9985    2.6919   35.6869 H   0  0  0  0  0  0  0  0  0  0  0  0
   30.6442    3.2967   34.7218 H   0  0  0  0  0  0  0  0  0  0  0  0
   28.7258    1.5197   35.5742 C   0  0  0  0  0  0  0  0  0  0  0  0
   28.3027    2.2145   36.3075 H   0  0  0  0  0  0  0  0  0  0  0  0
   28.2413    0.5469   35.7113 H   0  0  0  0  0  0  0  0  0  0  0  0
   28.4564    1.8914   34.5794 H   0  0  0  0  0  0  0  0  0  0  0  0
   30.5885    0.8326   34.8265 H   0  0  0  0  0  0  0  0  0  0  0  0
   31.7656    2.2919   37.8638 H   0  0  0  0  0  0  0  0  0  0  0  0
   32.4723    1.0230   39.8317 H   0  0  0  0  0  0  0  0  0  0  0  0
   33.0204   -1.3154   40.6508 H   0  0  0  0  0  0  0  0  0  0  0  0
   31.3801   -1.3818   41.2803 H   0  0  0  0  0  0  0  0  0  0  0  0
   34.4628   -2.5973   40.1750 N   0  0  0  0  0  0  0  0  0  0  0  0
   37.2339   -4.0457   39.2405 H   0  0  0  0  0  0  0  0  0  0  0  0
   35.6578    0.5549   39.7720 H   0  0  0  0  0  0  0  0  0  0  0  0
   35.4917   -0.6548   38.4881 H   0  0  0  0  0  0  0  0  0  0  0  0
   36.9969    2.6635   38.7913 H   0  0  0  0  0  0  0  0  0  0  0  0
   40.3041    1.1119   36.0428 C   0  0  0  0  0  0  0  0  0  0  0  0
   41.1067    0.4790   36.4353 H   0  0  0  0  0  0  0  0  0  0  0  0
   40.6999    2.1247   35.9177 H   0  0  0  0  0  0  0  0  0  0  0  0
   40.0198    0.7222   35.0602 H   0  0  0  0  0  0  0  0  0  0  0  0
  1  2  1  0  0  0  0
  1  5  1  0  0  0  0
  2  3  2  0  0  0  0
  2 43  1  0  0  0  0
  3  4  1  0  0  0  0
  4  5  2  0  0  0  0
  4 42  1  0  0  0  0
  5  6  1  0  0  0  0
  6  7  1  0  0  0  0
  6 40  1  0  0  0  0
  6 41  1  0  0  0  0
  7  8  1  0  0  0  0
  8  9  1  0  0  0  0
  8 38  2  0  0  0  0
  9 10  1  0  0  0  0
  9 39  1  0  0  0  0
 10 11  2  0  0  0  0
 10 12  1  0  0  0  0
 12 13  2  0  0  0  0
 13 14  1  0  0  0  0
 13 38  1  0  0  0  0
 14 15  1  0  0  0  0
 15 16  1  0  0  0  0
 15 36  1  0  0  0  0
 15 37  1  0  0  0  0
 16 17  1  0  0  0  0
 16 21  2  0  0  0  0
 17 18  2  0  0  0  0
 17 35  1  0  0  0  0
 18 19  1  0  0  0  0
 18 34  1  0  0  0  0
 19 20  2  0  0  0  0
 19 24  1  0  0  0  0
 20 21  1  0  0  0  0
 20 23  1  0  0  0  0
 21 22  1  0  0  0  0
 24 25  1  0  0  0  0
 24 29  1  0  0  0  0
 24 33  1  0  0  0  0
 25 26  1  0  0  0  0
 25 27  1  0  0  0  0
 25 28  1  0  0  0  0
 29 30  1  0  0  0  0
 29 31  1  0  0  0  0
 29 32  1  0  0  0  0
 43 44  1  0  0  0  0
 43 45  1  0  0  0  0
 43 46  1  0  0  0  0
M  END
> <Gold.Goldscore.Fitness>
67.7756

> <Gold.Goldscore.External.HBond>
1.4847

> <Gold.Protein.ActiveResidues>
 GLU87   ILE88   VAL90   ASN91   ALA92   ASP94   ASN95   ARG98   ILE118  ASN120 
 LYS123  GLY124  ILE125  ILE141  PHE142  THR147  SER148  SER149  ASN150  TYR151 
 GLY160  GLY161  ARG162  ASN163  GLY164  TYR165  GLY166  ALA167  LYS168  LEU169 
 THR181  THR215  ILE217  ILE317  GLN376  LYS378  ILE33   TYR34   MG903  

> <Gold.Goldscore.Internal.HBond>
0.0

> <Gold.Goldscore.Internal.Torsion.Weighted>
-4.6232

> <Gold.Protein.RotatedTorsions>
[ 8833 2752 2751 2750 ] final  -92.65 input   60.00 | X-H torsion
[ 6906  969  968  965 ] final -179.89 input   59.99 | X-H torsion
[ 6910  975  974  971 ] final  -12.12 input   60.00 | X-H torsion
[ 6897  962  961  958 ] final   71.11 input   60.00 | X-H torsion
[ 9084 2997 2996 2994 ] final  -38.60 input   60.00 | X-H torsion
[ 7406 1497 1496 1493 ] final  170.76 input   60.00 | X-H torsion
[ 7140 1220 1219 1216 ] final  115.27 input   60.00 | X-H torsion
[ 6926  995  994  992 ] final   25.13 input   60.0

> <Gold.Goldscore.Constraint.Score>
0.0

> <Gold.Id.Protein>
1ZXM|1ZXM_protein|mol2

> <Gold.Protein.RotatedAtoms>
   40.6750    3.3830   41.8637 H   0  0  0  0  0  0  0  0  0  0  0  0  # atno 6897 bound_to 962 
   42.5663   -2.5035   38.2571 H   0  0  0  0  0  0  0  0  0  0  0  0  # atno 6906 bound_to 969 
   38.8111   -4.3840   40.0676 H   0  0  0  0  0  0  0  0  0  0  0  0  # atno 6910 bound_to 975 
   45.8911    1.1244   38.6740 H   0  0  0  0  0  0  0  0  0  0  0  0  # atno 6926 bound_to 995 
   28.0475    0.1168   43.0607 H   0  0  0  0  0  0  0  0  0  0  0  0  # atno 7140 bound_to 1220
   28.2838   -0.9017   41.0

> <Gold.Version>
5.3.0

> <Gold.Goldscore.Internal.Correction>
-0.0166

> <Gold.Goldscore.Internal.Vdw>
-1.3472

> <Gold.Goldscore.Internal.Vdw.Weighted>
-1.3472

> <Gold.Goldscore.External.HBond.Weighted>
1.4847

> <Gold.Goldscore.External.Vdw.Weighted>
72.2447

> <Gold.Goldscore.Internal.HBond.Weighted>
0.0

> <Gold.Goldscore.Hbonds>
donor molecule, donor type, donor heavy atom, donor atom, acceptor molecule, acceptor atom, score
      L1  H     1    27       P1   757  0.74

> <Gold.Goldscore.External.Vdw>
52.5416

> <Gold.Goldscore.Internal.Torsion>
-4.6232

> <Gold.Goldscore.Internal.Correction.Weighted>
-0.0166

> <Gold.Version>
5.3.0

> <Gold.Id.Protein>
1ZXM|1ZXM_protein|mol2

> <Gold.ASP.Fitness>
23.8853

> <Gold.ASP.ASP>
27.9040

> <Gold.ASP.Map>
-139.5200

> <Gold.ASP.DEClash>
3.0231

> <Gold.ASP.DEInternal>
0.9956

> <Gold.ASP.Internal.Correction>
0.1091

> <Gold.Protein.RotatedTorsions>
[ 8924 2752 2751 2750 ] final  -36.54 input   60.00 | X-H torsion
[ 6908  969  968  965 ] final   46.31 input   59.99 | X-H torsion
[ 6912  975  974  971 ] final    8.23 input   60.00 | X-H torsion
[ 6899  962  961  958 ] final  121.94 input   60.00 | X-H torsion
[ 9165 2997 2996 2994 ] final  176.58 input   60.00 | X-H torsion
[ 7410 1497 1496 1493 ] final   90.76 input   60.00 | X-H torsion
[ 7137 1220 1219 1216 ] final  -59.33 input   60.00 | X-H torsion
[ 6928  995  994  992 ] final -161.01 input   60.00 | X-H torsion

> <Gold.Protein.ActiveResidues>
 GLU87   ILE88   VAL90   ASN91   ALA92   ASP94   ASN95   ARG98   ILE118  ASN120 
 LYS123  GLY124  ILE125  ILE141  PHE142  THR147  SER148  SER149  ASN150  TYR151 
 GLY160  GLY161  ARG162  ASN163  GLY164  TYR165  GLY166  ALA167  LYS168  LEU169 
 THR181  THR215  ILE217  ILE317  GLN376  LYS378  ILE33   TYR34   MG903  

> <Gold.Protein.RotatedAtoms>
   40.3401    3.7321   42.5054 H   0  0  0  0  0  0  0  0  0  0  0  0  # atno 6899 bound_to 962 
   41.0041   -2.3461   38.9650 H   0  0  0  0  0  0  0  0  0  0  0  0  # atno 6908 bound_to 969 
   38.8840   -4.7018   40.0110 H   0  0  0  0  0  0  0  0  0  0  0  0  # atno 6912 bound_to 975 
   46.1341    1.6133   40.4623 H   0  0  0  0  0  0  0  0  0  0  0  0  # atno 6928 bound_to 995 
   27.2185   -0.1840   44.7099 H   0  0  0  0  0  0  0  0  0  0  0  0  # atno 7137 bound_to 1220
   27.1620   -1.3291   41.1432 H   0  0  0  0  0  0  0  0  0  0  0  0  # atno 7410 bound_to 1497
   44.0334   -0.9738   29.7359 H   0  0  0  0  0  0  0  0  0  0  0  0  # atno 8924 bound_to 2752
   43.6286    0.6335   29.7413 H   0  0  0  0  0  0  0  0  0  0  0  0  # atno 8925 bound_to 2752
   43.3524   -0.2952   31.0861 H   0  0  0  0  0  0  0  0  0  0  0  0  # atno 8926 bound_to 2752
   34.1019   -4.8472   45.5009 H   0  0  0  0  0  0  0  0  0  0  0  0  # atno 9165 bound_to 2997
   42.2402   -3.2459   39.5222 LP  0  0  0  0  0  0  0  0  0  0  0  0  # atno 11896 bound_to 969 
   42.4145   -2.3721   38.1537 LP  0  0  0  0  0  0  0  0  0  0  0  0  # atno 11897 bound_to 969 
   37.5917   -4.0320   40.7386 LP  0  0  0  0  0  0  0  0  0  0  0  0  # atno 11898 bound_to 975 
   37.6993   -5.6547   40.5912 LP  0  0  0  0  0  0  0  0  0  0  0  0  # atno 11899 bound_to 975 
   41.5954    3.7511   41.4701 LP  0  0  0  0  0  0  0  0  0  0  0  0  # atno 11904 bound_to 962 
   41.5114    4.8487   42.6763 LP  0  0  0  0  0  0  0  0  0  0  0  0  # atno 11905 bound_to 962 
   34.7341   -4.9134   44.0029 LP  0  0  0  0  0  0  0  0  0  0  0  0  # atno 11912 bound_to 2997
   33.9515   -3.5703   44.5033 LP  0  0  0  0  0  0  0  0  0  0  0  0  # atno 11913 bound_to 2997
   27.0312   -0.0117   42.0894 LP  0  0  0  0  0  0  0  0  0  0  0  0  # atno 11922 bound_to 1497
   28.4537   -0.3659   41.3700 LP  0  0  0  0  0  0  0  0  0  0  0  0  # atno 11923 bound_to 1497
   28.6147   -0.0033   43.8940 LP  0  0  0  0  0  0  0  0  0  0  0  0  # atno 11930 bound_to 1220
   27.1878    0.0775   43.1041 LP  0  0  0  0  0  0  0  0  0  0  0  0  # atno 11931 bound_to 1220

$$$$
****|SGG-4|sdf|1|dock12
  -GOLD-   9 72311443D 1   1.00000     0.00000

 46 48  0  0  0  0  0  0  0  0  1 V2000
   36.7075   -0.1421   39.4153 S   0  0  0  0  0  0  0  0  0  0  0  0
   36.6992    1.4394   38.7445 C   0  0  0  0  0  0  0  0  0  0  0  0
   37.4319    1.6003   37.6641 N   0  0  0  0  0  0  0  0  0  0  0  0
   38.0427    0.4064   37.3366 C   0  0  0  0  0  0  0  0  0  0  0  0
   37.7696   -0.6614   38.1703 C   0  0  0  0  0  0  0  0  0  0  0  0
   38.2812   -2.0651   38.1277 C   0  0  0  0  0  0  0  0  0  0  0  0
   37.8123   -2.8880   36.5711 S   0  0  0  0  0  0  0  0  0  0  0  0
   36.6672   -4.0581   37.2114 C   0  0  0  0  0  0  0  0  0  0  0  0
   37.1087   -5.3394   37.5045 N   0  0  0  0  0  0  0  0  0  0  0  0
   36.2178   -6.2837   37.9996 C   0  0  0  0  0  0  0  0  0  0  0  0
   36.6560   -7.5734   38.3084 O   0  0  0  0  0  0  0  0  0  0  0  0
   34.9345   -5.9510   38.1699 N   0  0  0  0  0  0  0  0  0  0  0  0
   34.5842   -4.6978   37.8563 C   0  0  0  0  0  0  0  0  0  0  0  0
   32.8667   -4.2919   38.0254 S   0  0  0  0  0  0  0  0  0  0  0  0
   33.0971   -2.8709   39.1247 C   0  0  0  0  0  0  0  0  0  0  0  0
   32.4938   -1.6085   38.5633 C   0  0  0  0  0  0  0  0  0  0  0  0
   31.1597   -1.5756   38.1403 C   0  0  0  0  0  0  0  0  0  0  0  0
   30.5975   -0.3932   37.6487 C   0  0  0  0  0  0  0  0  0  0  0  0
   31.3603    0.7792   37.5528 C   0  0  0  0  0  0  0  0  0  0  0  0
   32.6994    0.7387   37.9667 C   0  0  0  0  0  0  0  0  0  0  0  0
   33.2607   -0.4405   38.4630 C   0  0  0  0  0  0  0  0  0  0  0  0
   34.3032   -0.4406   38.7750 H   0  0  0  0  0  0  0  0  0  0  0  0
   33.3196    1.6309   37.9107 H   0  0  0  0  0  0  0  0  0  0  0  0
   30.7732    2.0885   37.0549 C   0  0  0  0  0  0  0  0  0  0  0  0
   29.3105    1.8979   36.6479 C   0  0  0  0  0  0  0  0  0  0  0  0
   29.2112    1.2001   35.8091 H   0  0  0  0  0  0  0  0  0  0  0  0
   28.7199    1.5020   37.4819 H   0  0  0  0  0  0  0  0  0  0  0  0
   28.8651    2.8521   36.3471 H   0  0  0  0  0  0  0  0  0  0  0  0
   31.5771    2.7135   35.9115 C   0  0  0  0  0  0  0  0  0  0  0  0
   31.4729    2.1511   34.9775 H   0  0  0  0  0  0  0  0  0  0  0  0
   32.6427    2.7607   36.1608 H   0  0  0  0  0  0  0  0  0  0  0  0
   31.2325    3.7352   35.7173 H   0  0  0  0  0  0  0  0  0  0  0  0
   30.7962    2.8115   37.8816 H   0  0  0  0  0  0  0  0  0  0  0  0
   29.5524   -0.4004   37.3492 H   0  0  0  0  0  0  0  0  0  0  0  0
   30.5426   -2.4696   38.1975 H   0  0  0  0  0  0  0  0  0  0  0  0
   34.1660   -2.6994   39.3017 H   0  0  0  0  0  0  0  0  0  0  0  0
   32.6510   -3.0971   40.1005 H   0  0  0  0  0  0  0  0  0  0  0  0
   35.3860   -3.7345   37.3868 N   0  0  0  0  0  0  0  0  0  0  0  0
   38.0793   -5.5771   37.3555 H   0  0  0  0  0  0  0  0  0  0  0  0
   39.3747   -2.0462   38.2063 H   0  0  0  0  0  0  0  0  0  0  0  0
   37.8936   -2.6481   38.9702 H   0  0  0  0  0  0  0  0  0  0  0  0
   38.6871    0.3712   36.4659 H   0  0  0  0  0  0  0  0  0  0  0  0
   35.9122    2.5223   39.3938 C   0  0  0  0  0  0  0  0  0  0  0  0
   34.8631    2.2246   39.4918 H   0  0  0  0  0  0  0  0  0  0  0  0
   35.9521    3.4340   38.7895 H   0  0  0  0  0  0  0  0  0  0  0  0
   36.2917    2.7481   40.3954 H   0  0  0  0  0  0  0  0  0  0  0  0
  1  2  1  0  0  0  0
  1  5  1  0  0  0  0
  2  3  2  0  0  0  0
  2 43  1  0  0  0  0
  3  4  1  0  0  0  0
  4  5  2  0  0  0  0
  4 42  1  0  0  0  0
  5  6  1  0  0  0  0
  6  7  1  0  0  0  0
  6 40  1  0  0  0  0
  6 41  1  0  0  0  0
  7  8  1  0  0  0  0
  8  9  1  0  0  0  0
  8 38  2  0  0  0  0
  9 10  1  0  0  0  0
  9 39  1  0  0  0  0
 10 11  2  0  0  0  0
 10 12  1  0  0  0  0
 12 13  2  0  0  0  0
 13 14  1  0  0  0  0
 13 38  1  0  0  0  0
 14 15  1  0  0  0  0
 15 16  1  0  0  0  0
 15 36  1  0  0  0  0
 15 37  1  0  0  0  0
 16 17  1  0  0  0  0
 16 21  2  0  0  0  0
 17 18  2  0  0  0  0
 17 35  1  0  0  0  0
 18 19  1  0  0  0  0
 18 34  1  0  0  0  0
 19 20  2  0  0  0  0
 19 24  1  0  0  0  0
 20 21  1  0  0  0  0
 20 23  1  0  0  0  0
 21 22  1  0  0  0  0
 24 25  1  0  0  0  0
 24 29  1  0  0  0  0
 24 33  1  0  0  0  0
 25 26  1  0  0  0  0
 25 27  1  0  0  0  0
 25 28  1  0  0  0  0
 29 30  1  0  0  0  0
 29 31  1  0  0  0  0
 29 32  1  0  0  0  0
 43 44  1  0  0  0  0
 43 45  1  0  0  0  0
 43 46  1  0  0  0  0
M  END
> <Gold.Goldscore.Fitness>
67.7756

> <Gold.Goldscore.External.HBond>
1.4847

> <Gold.Protein.ActiveResidues>
 GLU87   ILE88   VAL90   ASN91   ALA92   ASP94   ASN95   ARG98   ILE118  ASN120 
 LYS123  GLY124  ILE125  ILE141  PHE142  THR147  SER148  SER149  ASN150  TYR151 
 GLY160  GLY161  ARG162  ASN163  GLY164  TYR165  GLY166  ALA167  LYS168  LEU169 
 THR181  THR215  ILE217  ILE317  GLN376  LYS378  ILE33   TYR34   MG903  

> <Gold.Goldscore.Internal.HBond>
0.0

> <Gold.Goldscore.Internal.Torsion.Weighted>
-4.6232

> <Gold.Protein.RotatedTorsions>
[ 8833 2752 2751 2750 ] final  -92.65 input   60.00 | X-H torsion
[ 6906  969  968  965 ] final -179.89 input   59.99 | X-H torsion
[ 6910  975  974  971 ] final  -12.12 input   60.00 | X-H torsion
[ 6897  962  961  958 ] final   71.11 input   60.00 | X-H torsion
[ 9084 2997 2996 2994 ] final  -38.60 input   60.00 | X-H torsion
[ 7406 1497 1496 1493 ] final  170.76 input   60.00 | X-H torsion
[ 7140 1220 1219 1216 ] final  115.27 input   60.00 | X-H torsion
[ 6926  995  994  992 ] final   25.13 input   60.0

> <Gold.Goldscore.Constraint.Score>
0.0

> <Gold.Id.Protein>
1ZXM|1ZXM_protein|mol2

> <Gold.Protein.RotatedAtoms>
   40.6750    3.3830   41.8637 H   0  0  0  0  0  0  0  0  0  0  0  0  # atno 6897 bound_to 962 
   42.5663   -2.5035   38.2571 H   0  0  0  0  0  0  0  0  0  0  0  0  # atno 6906 bound_to 969 
   38.8111   -4.3840   40.0676 H   0  0  0  0  0  0  0  0  0  0  0  0  # atno 6910 bound_to 975 
   45.8911    1.1244   38.6740 H   0  0  0  0  0  0  0  0  0  0  0  0  # atno 6926 bound_to 995 
   28.0475    0.1168   43.0607 H   0  0  0  0  0  0  0  0  0  0  0  0  # atno 7140 bound_to 1220
   28.2838   -0.9017   41.0

> <Gold.Version>
5.3.0

> <Gold.Goldscore.Internal.Correction>
-0.0166

> <Gold.Goldscore.Internal.Vdw>
-1.3472

> <Gold.Goldscore.Internal.Vdw.Weighted>
-1.3472

> <Gold.Goldscore.External.HBond.Weighted>
1.4847

> <Gold.Goldscore.External.Vdw.Weighted>
72.2447

> <Gold.Goldscore.Internal.HBond.Weighted>
0.0

> <Gold.Goldscore.Hbonds>
donor molecule, donor type, donor heavy atom, donor atom, acceptor molecule, acceptor atom, score
      L1  H     1    27       P1   757  0.74

> <Gold.Goldscore.External.Vdw>
52.5416

> <Gold.Goldscore.Internal.Torsion>
-4.6232

> <Gold.Goldscore.Internal.Correction.Weighted>
-0.0166

> <Gold.Version>
5.3.0

> <Gold.Id.Protein>
1ZXM|1ZXM_protein|mol2

> <Gold.ASP.Fitness>
23.8552

> <Gold.ASP.ASP>
29.3640

> <Gold.ASP.Map>
-146.8200

> <Gold.ASP.DEClash>
4.4222

> <Gold.ASP.DEInternal>
1.0866

> <Gold.ASP.Internal.Correction>
0.1091

> <Gold.Protein.RotatedTorsions>
[ 8924 2752 2751 2750 ] final   -2.28 input   60.00 | X-H torsion
[ 6908  969  968  965 ] final  -29.25 input   59.99 | X-H torsion
[ 6912  975  974  971 ] final   86.59 input   60.00 | X-H torsion
[ 6899  962  961  958 ] final  -37.04 input   60.00 | X-H torsion
[ 9165 2997 2996 2994 ] final  -16.13 input   60.00 | X-H torsion
[ 7410 1497 1496 1493 ] final  -86.26 input   60.00 | X-H torsion
[ 7137 1220 1219 1216 ] final   15.83 input   60.00 | X-H torsion
[ 6928  995  994  992 ] final   64.37 input   60.00 | X-H torsion

> <Gold.Protein.ActiveResidues>
 GLU87   ILE88   VAL90   ASN91   ALA92   ASP94   ASN95   ARG98   ILE118  ASN120 
 LYS123  GLY124  ILE125  ILE141  PHE142  THR147  SER148  SER149  ASN150  TYR151 
 GLY160  GLY161  ARG162  ASN163  GLY164  TYR165  GLY166  ALA167  LYS168  LEU169 
 THR181  THR215  ILE217  ILE317  GLN376  LYS378  ILE33   TYR34   MG903  

> <Gold.Protein.RotatedAtoms>
   41.9191    4.2347   41.7034 H   0  0  0  0  0  0  0  0  0  0  0  0  # atno 6899 bound_to 962 
   41.5684   -3.0614   39.6620 H   0  0  0  0  0  0  0  0  0  0  0  0  # atno 6908 bound_to 969 
   38.2876   -5.6882   40.2764 H   0  0  0  0  0  0  0  0  0  0  0  0  # atno 6912 bound_to 975 
   45.3477    1.1921   38.9830 H   0  0  0  0  0  0  0  0  0  0  0  0  # atno 6928 bound_to 995 
   26.7655   -0.0287   43.6734 H   0  0  0  0  0  0  0  0  0  0  0  0  # atno 7137 bound_to 1220
   27.8903    0.1989   41.9419 H   0  0  0  0  0  0  0  0  0  0  0  0  # atno 7410 bound_to 1497
   44.0604   -0.5397   29.3772 H   0  0  0  0  0  0  0  0  0  0  0  0  # atno 8924 bound_to 2752
   43.4147    0.7074   30.2576 H   0  0  0  0  0  0  0  0  0  0  0  0  # atno 8925 bound_to 2752
   43.5394   -0.8031   30.9285 H   0  0  0  0  0  0  0  0  0  0  0  0  # atno 8926 bound_to 2752
   34.3224   -3.8813   43.9256 H   0  0  0  0  0  0  0  0  0  0  0  0  # atno 9165 bound_to 2997
   42.7652   -2.8168   38.5869 LP  0  0  0  0  0  0  0  0  0  0  0  0  # atno 11896 bound_to 969 
   41.3212   -2.0808   38.3870 LP  0  0  0  0  0  0  0  0  0  0  0  0  # atno 11897 bound_to 969 
   38.6379   -4.1024   40.1735 LP  0  0  0  0  0  0  0  0  0  0  0  0  # atno 11898 bound_to 975 
   37.2537   -4.5910   40.8890 LP  0  0  0  0  0  0  0  0  0  0  0  0  # atno 11899 bound_to 975 
   40.9717    4.6769   42.9504 LP  0  0  0  0  0  0  0  0  0  0  0  0  # atno 11904 bound_to 962 
   40.5448    3.4167   42.0037 LP  0  0  0  0  0  0  0  0  0  0  0  0  # atno 11905 bound_to 962 
   33.8191   -4.1505   45.4495 LP  0  0  0  0  0  0  0  0  0  0  0  0  # atno 11912 bound_to 2997
   34.6445   -5.3059   44.6430 LP  0  0  0  0  0  0  0  0  0  0  0  0  # atno 11913 bound_to 2997
   28.1035   -1.1006   40.9860 LP  0  0  0  0  0  0  0  0  0  0  0  0  # atno 11922 bound_to 1497
   26.6478   -0.8159   41.6690 LP  0  0  0  0  0  0  0  0  0  0  0  0  # atno 11923 bound_to 1497
   27.9294   -0.1767   44.8009 LP  0  0  0  0  0  0  0  0  0  0  0  0  # atno 11930 bound_to 1220
   28.3294    0.0945   43.2411 LP  0  0  0  0  0  0  0  0  0  0  0  0  # atno 11931 bound_to 1220

$$$$
****|SGG-4|sdf|1|dock18
  -GOLD-   9 72311453D 1   1.00000     0.00000

 46 48  0  0  0  0  0  0  0  0  1 V2000
   37.5972   -0.5403   39.0469 S   0  0  0  0  0  0  0  0  0  0  0  0
   36.3927    0.6676   39.2509 C   0  0  0  0  0  0  0  0  0  0  0  0
   35.3604    0.5807   38.4405 N   0  0  0  0  0  0  0  0  0  0  0  0
   35.5200   -0.5039   37.6015 C   0  0  0  0  0  0  0  0  0  0  0  0
   36.6754   -1.2410   37.7791 C   0  0  0  0  0  0  0  0  0  0  0  0
   37.1727   -2.4369   37.0331 C   0  0  0  0  0  0  0  0  0  0  0  0
   35.8365   -3.6465   36.7658 S   0  0  0  0  0  0  0  0  0  0  0  0
   35.4697   -4.0275   38.4423 C   0  0  0  0  0  0  0  0  0  0  0  0
   35.9776   -5.1943   38.9931 N   0  0  0  0  0  0  0  0  0  0  0  0
   35.6897   -5.5212   40.3124 C   0  0  0  0  0  0  0  0  0  0  0  0
   36.2063   -6.6886   40.8789 O   0  0  0  0  0  0  0  0  0  0  0  0
   34.9060   -4.7137   41.0338 N   0  0  0  0  0  0  0  0  0  0  0  0
   34.4477   -3.6111   40.4289 C   0  0  0  0  0  0  0  0  0  0  0  0
   33.3570   -2.5849   41.3778 S   0  0  0  0  0  0  0  0  0  0  0  0
   31.8753   -2.8778   40.3781 C   0  0  0  0  0  0  0  0  0  0  0  0
   31.5345   -1.7006   39.5002 C   0  0  0  0  0  0  0  0  0  0  0  0
   30.2582   -1.5664   38.9410 C   0  0  0  0  0  0  0  0  0  0  0  0
   29.9394   -0.4564   38.1523 C   0  0  0  0  0  0  0  0  0  0  0  0
   30.8938    0.5366   37.8904 C   0  0  0  0  0  0  0  0  0  0  0  0
   32.1744    0.3922   38.4430 C   0  0  0  0  0  0  0  0  0  0  0  0
   32.4925   -0.7135   39.2355 C   0  0  0  0  0  0  0  0  0  0  0  0
   33.4955   -0.7978   39.6490 H   0  0  0  0  0  0  0  0  0  0  0  0
   32.9386    1.1459   38.2644 H   0  0  0  0  0  0  0  0  0  0  0  0
   30.5725    1.7710   37.0659 C   0  0  0  0  0  0  0  0  0  0  0  0
   29.4950    1.4540   36.0267 C   0  0  0  0  0  0  0  0  0  0  0  0
   29.8375    0.7056   35.3035 H   0  0  0  0  0  0  0  0  0  0  0  0
   28.5903    1.0636   36.5064 H   0  0  0  0  0  0  0  0  0  0  0  0
   29.2155    2.3558   35.4716 H   0  0  0  0  0  0  0  0  0  0  0  0
   31.8047    2.3878   36.3985 C   0  0  0  0  0  0  0  0  0  0  0  0
   32.1840    1.7686   35.5786 H   0  0  0  0  0  0  0  0  0  0  0  0
   32.6158    2.5248   37.1219 H   0  0  0  0  0  0  0  0  0  0  0  0
   31.5597    3.3699   35.9792 H   0  0  0  0  0  0  0  0  0  0  0  0
   30.1680    2.5384   37.7398 H   0  0  0  0  0  0  0  0  0  0  0  0
   28.9318   -0.3758   37.7521 H   0  0  0  0  0  0  0  0  0  0  0  0
   29.4967   -2.3220   39.1214 H   0  0  0  0  0  0  0  0  0  0  0  0
   31.0172   -3.0903   41.0276 H   0  0  0  0  0  0  0  0  0  0  0  0
   32.0299   -3.7717   39.7621 H   0  0  0  0  0  0  0  0  0  0  0  0
   34.6910   -3.2269   39.1701 N   0  0  0  0  0  0  0  0  0  0  0  0
   36.5561   -5.8000   38.4280 H   0  0  0  0  0  0  0  0  0  0  0  0
   37.5599   -2.1118   36.0602 H   0  0  0  0  0  0  0  0  0  0  0  0
   37.9910   -2.9232   37.5752 H   0  0  0  0  0  0  0  0  0  0  0  0
   34.7508   -0.7137   36.8674 H   0  0  0  0  0  0  0  0  0  0  0  0
   36.5654    1.7288   40.2793 C   0  0  0  0  0  0  0  0  0  0  0  0
   36.7219    1.2812   41.2662 H   0  0  0  0  0  0  0  0  0  0  0  0
   35.6708    2.3574   40.3289 H   0  0  0  0  0  0  0  0  0  0  0  0
   37.4290    2.3641   40.0584 H   0  0  0  0  0  0  0  0  0  0  0  0
  1  2  1  0  0  0  0
  1  5  1  0  0  0  0
  2  3  2  0  0  0  0
  2 43  1  0  0  0  0
  3  4  1  0  0  0  0
  4  5  2  0  0  0  0
  4 42  1  0  0  0  0
  5  6  1  0  0  0  0
  6  7  1  0  0  0  0
  6 40  1  0  0  0  0
  6 41  1  0  0  0  0
  7  8  1  0  0  0  0
  8  9  1  0  0  0  0
  8 38  2  0  0  0  0
  9 10  1  0  0  0  0
  9 39  1  0  0  0  0
 10 11  2  0  0  0  0
 10 12  1  0  0  0  0
 12 13  2  0  0  0  0
 13 14  1  0  0  0  0
 13 38  1  0  0  0  0
 14 15  1  0  0  0  0
 15 16  1  0  0  0  0
 15 36  1  0  0  0  0
 15 37  1  0  0  0  0
 16 17  1  0  0  0  0
 16 21  2  0  0  0  0
 17 18  2  0  0  0  0
 17 35  1  0  0  0  0
 18 19  1  0  0  0  0
 18 34  1  0  0  0  0
 19 20  2  0  0  0  0
 19 24  1  0  0  0  0
 20 21  1  0  0  0  0
 20 23  1  0  0  0  0
 21 22  1  0  0  0  0
 24 25  1  0  0  0  0
 24 29  1  0  0  0  0
 24 33  1  0  0  0  0
 25 26  1  0  0  0  0
 25 27  1  0  0  0  0
 25 28  1  0  0  0  0
 29 30  1  0  0  0  0
 29 31  1  0  0  0  0
 29 32  1  0  0  0  0
 43 44  1  0  0  0  0
 43 45  1  0  0  0  0
 43 46  1  0  0  0  0
M  END
> <Gold.Goldscore.Fitness>
67.7756

> <Gold.Goldscore.External.HBond>
1.4847

> <Gold.Protein.ActiveResidues>
 GLU87   ILE88   VAL90   ASN91   ALA92   ASP94   ASN95   ARG98   ILE118  ASN120 
 LYS123  GLY124  ILE125  ILE141  PHE142  THR147  SER148  SER149  ASN150  TYR151 
 GLY160  GLY161  ARG162  ASN163  GLY164  TYR165  GLY166  ALA167  LYS168  LEU169 
 THR181  THR215  ILE217  ILE317  GLN376  LYS378  ILE33   TYR34   MG903  

> <Gold.Goldscore.Internal.HBond>
0.0

> <Gold.Goldscore.Internal.Torsion.Weighted>
-4.6232

> <Gold.Protein.RotatedTorsions>
[ 8833 2752 2751 2750 ] final  -92.65 input   60.00 | X-H torsion
[ 6906  969  968  965 ] final -179.89 input   59.99 | X-H torsion
[ 6910  975  974  971 ] final  -12.12 input   60.00 | X-H torsion
[ 6897  962  961  958 ] final   71.11 input   60.00 | X-H torsion
[ 9084 2997 2996 2994 ] final  -38.60 input   60.00 | X-H torsion
[ 7406 1497 1496 1493 ] final  170.76 input   60.00 | X-H torsion
[ 7140 1220 1219 1216 ] final  115.27 input   60.00 | X-H torsion
[ 6926  995  994  992 ] final   25.13 input   60.0

> <Gold.Goldscore.Constraint.Score>
0.0

> <Gold.Id.Protein>
1ZXM|1ZXM_protein|mol2

> <Gold.Protein.RotatedAtoms>
   40.6750    3.3830   41.8637 H   0  0  0  0  0  0  0  0  0  0  0  0  # atno 6897 bound_to 962 
   42.5663   -2.5035   38.2571 H   0  0  0  0  0  0  0  0  0  0  0  0  # atno 6906 bound_to 969 
   38.8111   -4.3840   40.0676 H   0  0  0  0  0  0  0  0  0  0  0  0  # atno 6910 bound_to 975 
   45.8911    1.1244   38.6740 H   0  0  0  0  0  0  0  0  0  0  0  0  # atno 6926 bound_to 995 
   28.0475    0.1168   43.0607 H   0  0  0  0  0  0  0  0  0  0  0  0  # atno 7140 bound_to 1220
   28.2838   -0.9017   41.0

> <Gold.Version>
5.3.0

> <Gold.Goldscore.Internal.Correction>
-0.0166

> <Gold.Goldscore.Internal.Vdw>
-1.3472

> <Gold.Goldscore.Internal.Vdw.Weighted>
-1.3472

> <Gold.Goldscore.External.HBond.Weighted>
1.4847

> <Gold.Goldscore.External.Vdw.Weighted>
72.2447

> <Gold.Goldscore.Internal.HBond.Weighted>
0.0

> <Gold.Goldscore.Hbonds>
donor molecule, donor type, donor heavy atom, donor atom, acceptor molecule, acceptor atom, score
      L1  H     1    27       P1   757  0.74

> <Gold.Goldscore.External.Vdw>
52.5416

> <Gold.Goldscore.Internal.Torsion>
-4.6232

> <Gold.Goldscore.Internal.Correction.Weighted>
-0.0166

> <Gold.Version>
5.3.0

> <Gold.Id.Protein>
1ZXM|1ZXM_protein|mol2

> <Gold.ASP.Fitness>
23.7826

> <Gold.ASP.ASP>
27.9320

> <Gold.ASP.Map>
-139.6600

> <Gold.ASP.DEClash>
2.4342

> <Gold.ASP.DEInternal>
1.7152

> <Gold.ASP.Internal.Correction>
0.1091

> <Gold.Protein.RotatedTorsions>
[ 8924 2752 2751 2750 ] final  155.97 input   60.00 | X-H torsion
[ 6908  969  968  965 ] final  -35.63 input   59.99 | X-H torsion
[ 6912  975  974  971 ] final  -79.60 input   60.00 | X-H torsion
[ 6899  962  961  958 ] final   93.62 input   60.00 | X-H torsion
[ 9165 2997 2996 2994 ] final   16.39 input   60.00 | X-H torsion
[ 7410 1497 1496 1493 ] final   28.60 input   60.00 | X-H torsion
[ 7137 1220 1219 1216 ] final  145.10 input   60.00 | X-H torsion
[ 6928  995  994  992 ] final -111.98 input   60.00 | X-H torsion

> <Gold.Protein.ActiveResidues>
 GLU87   ILE88   VAL90   ASN91   ALA92   ASP94   ASN95   ARG98   ILE118  ASN120 
 LYS123  GLY124  ILE125  ILE141  PHE142  THR147  SER148  SER149  ASN150  TYR151 
 GLY160  GLY161  ARG162  ASN163  GLY164  TYR165  GLY166  ALA167  LYS168  LEU169 
 THR181  THR215  ILE217  ILE317  GLN376  LYS378  ILE33   TYR34   MG903  

> <Gold.Protein.RotatedAtoms>
   40.4596    3.4787   42.1431 H   0  0  0  0  0  0  0  0  0  0  0  0  # atno 6899 bound_to 962 
   41.6624   -3.1058   39.6699 H   0  0  0  0  0  0  0  0  0  0  0  0  # atno 6908 bound_to 969 
   38.0304   -3.8628   40.5152 H   0  0  0  0  0  0  0  0  0  0  0  0  # atno 6912 bound_to 975 
   46.8139    1.5336   40.0947 H   0  0  0  0  0  0  0  0  0  0  0  0  # atno 6928 bound_to 995 
   28.4242    0.0806   43.3592 H   0  0  0  0  0  0  0  0  0  0  0  0  # atno 7137 bound_to 1220
   26.6464   -0.7449   41.7151 H   0  0  0  0  0  0  0  0  0  0  0  0  # atno 7410 bound_to 1497
   43.2836    0.4159   30.7971 H   0  0  0  0  0  0  0  0  0  0  0  0  # atno 8924 bound_to 2752
   43.7984   -1.1220   30.4547 H   0  0  0  0  0  0  0  0  0  0  0  0  # atno 8925 bound_to 2752
   43.9323    0.0706   29.3115 H   0  0  0  0  0  0  0  0  0  0  0  0  # atno 8926 bound_to 2752
   34.5675   -4.3256   43.7940 H   0  0  0  0  0  0  0  0  0  0  0  0  # atno 9165 bound_to 2997
   42.7441   -2.7525   38.5066 LP  0  0  0  0  0  0  0  0  0  0  0  0  # atno 11896 bound_to 969 
   41.2477   -2.1004   38.4594 LP  0  0  0  0  0  0  0  0  0  0  0  0  # atno 11897 bound_to 969 
   37.3561   -5.3173   40.7939 LP  0  0  0  0  0  0  0  0  0  0  0  0  # atno 11898 bound_to 975 
   38.7946   -5.2143   40.0280 LP  0  0  0  0  0  0  0  0  0  0  0  0  # atno 11899 bound_to 975 
   41.8644    4.1002   41.6062 LP  0  0  0  0  0  0  0  0  0  0  0  0  # atno 11904 bound_to 962 
   41.1221    4.7547   42.9051 LP  0  0  0  0  0  0  0  0  0  0  0  0  # atno 11905 bound_to 962 
   33.7880   -3.7535   45.1029 LP  0  0  0  0  0  0  0  0  0  0  0  0  # atno 11912 bound_to 2997
   34.4287   -5.2554   45.1222 LP  0  0  0  0  0  0  0  0  0  0  0  0  # atno 11913 bound_to 2997
   27.9674    0.1852   41.9096 LP  0  0  0  0  0  0  0  0  0  0  0  0  # atno 11922 bound_to 1497
   28.0368   -1.1512   40.9738 LP  0  0  0  0  0  0  0  0  0  0  0  0  # atno 11923 bound_to 1497
   26.8082   -0.0058   43.5293 LP  0  0  0  0  0  0  0  0  0  0  0  0  # atno 11930 bound_to 1220
   27.7799   -0.1865   44.8293 LP  0  0  0  0  0  0  0  0  0  0  0  0  # atno 11931 bound_to 1220

$$$$
****|SGG-4|sdf|1|dock46
  -GOLD-   9 72311473D 1   1.00000     0.00000

 46 48  0  0  0  0  0  0  0  0  1 V2000
   39.4167    0.3529   38.3552 S   0  0  0  0  0  0  0  0  0  0  0  0
   39.2494    1.4094   37.0109 C   0  0  0  0  0  0  0  0  0  0  0  0
   38.1353    2.1075   36.9742 N   0  0  0  0  0  0  0  0  0  0  0  0
   37.3575    1.7965   38.0715 C   0  0  0  0  0  0  0  0  0  0  0  0
   37.8856    0.8620   38.9420 C   0  0  0  0  0  0  0  0  0  0  0  0
   37.3048    0.2801   40.1902 C   0  0  0  0  0  0  0  0  0  0  0  0
   37.9060   -1.4179   40.4646 S   0  0  0  0  0  0  0  0  0  0  0  0
   37.5035   -2.1096   38.8994 C   0  0  0  0  0  0  0  0  0  0  0  0
   37.7607   -1.3732   37.7530 N   0  0  0  0  0  0  0  0  0  0  0  0
   37.4388   -1.8955   36.5064 C   0  0  0  0  0  0  0  0  0  0  0  0
   37.7047   -1.1656   35.3456 O   0  0  0  0  0  0  0  0  0  0  0  0
   36.8636   -3.0993   36.4265 N   0  0  0  0  0  0  0  0  0  0  0  0
   36.6398   -3.7442   37.5779 C   0  0  0  0  0  0  0  0  0  0  0  0
   35.8170   -5.3101   37.4592 S   0  0  0  0  0  0  0  0  0  0  0  0
   34.8931   -5.1766   39.0115 C   0  0  0  0  0  0  0  0  0  0  0  0
   33.9128   -4.0314   38.9980 C   0  0  0  0  0  0  0  0  0  0  0  0
   33.9951   -3.0034   39.9446 C   0  0  0  0  0  0  0  0  0  0  0  0
   33.1013   -1.9284   39.9080 C   0  0  0  0  0  0  0  0  0  0  0  0
   32.0941   -1.8645   38.9349 C   0  0  0  0  0  0  0  0  0  0  0  0
   32.0081   -2.9023   37.9958 C   0  0  0  0  0  0  0  0  0  0  0  0
   32.9037   -3.9740   38.0281 C   0  0  0  0  0  0  0  0  0  0  0  0
   32.8103   -4.7648   37.2864 H   0  0  0  0  0  0  0  0  0  0  0  0
   31.2418   -2.8831   37.2236 H   0  0  0  0  0  0  0  0  0  0  0  0
   31.1277   -0.6962   38.8455 C   0  0  0  0  0  0  0  0  0  0  0  0
   30.1245   -0.9180   37.7115 C   0  0  0  0  0  0  0  0  0  0  0  0
   30.6195   -0.9579   36.7349 H   0  0  0  0  0  0  0  0  0  0  0  0
   29.5807   -1.8596   37.8477 H   0  0  0  0  0  0  0  0  0  0  0  0
   29.3876   -0.1083   37.6829 H   0  0  0  0  0  0  0  0  0  0  0  0
   31.8292    0.6560   38.6920 C   0  0  0  0  0  0  0  0  0  0  0  0
   32.2834    0.7760   37.7026 H   0  0  0  0  0  0  0  0  0  0  0  0
   32.6176    0.7768   39.4429 H   0  0  0  0  0  0  0  0  0  0  0  0
   31.1126    1.4743   38.8233 H   0  0  0  0  0  0  0  0  0  0  0  0
   30.5608   -0.6466   39.7851 H   0  0  0  0  0  0  0  0  0  0  0  0
   33.2090   -1.1380   40.6468 H   0  0  0  0  0  0  0  0  0  0  0  0
   34.7623   -3.0259   40.7155 H   0  0  0  0  0  0  0  0  0  0  0  0
   35.5842   -5.0360   39.8517 H   0  0  0  0  0  0  0  0  0  0  0  0
   34.3647   -6.1195   39.1958 H   0  0  0  0  0  0  0  0  0  0  0  0
   36.9318   -3.3105   38.8099 N   0  0  0  0  0  0  0  0  0  0  0  0
   38.1825   -0.4587   37.8338 H   0  0  0  0  0  0  0  0  0  0  0  0
   37.5983    0.9048   41.0421 H   0  0  0  0  0  0  0  0  0  0  0  0
   36.2105    0.2679   40.1433 H   0  0  0  0  0  0  0  0  0  0  0  0
   36.3991    2.2888   38.1884 H   0  0  0  0  0  0  0  0  0  0  0  0
   40.3168    1.4772   35.9765 C   0  0  0  0  0  0  0  0  0  0  0  0
   41.2801    1.7175   36.4381 H   0  0  0  0  0  0  0  0  0  0  0  0
   40.0860    2.2577   35.2447 H   0  0  0  0  0  0  0  0  0  0  0  0
   40.4257    0.5236   35.4501 H   0  0  0  0  0  0  0  0  0  0  0  0
  1  2  1  0  0  0  0
  1  5  1  0  0  0  0
  2  3  2  0  0  0  0
  2 43  1  0  0  0  0
  3  4  1  0  0  0  0
  4  5  2  0  0  0  0
  4 42  1  0  0  0  0
  5  6  1  0  0  0  0
  6  7  1  0  0  0  0
  6 40  1  0  0  0  0
  6 41  1  0  0  0  0
  7  8  1  0  0  0  0
  8  9  1  0  0  0  0
  8 38  2  0  0  0  0
  9 10  1  0  0  0  0
  9 39  1  0  0  0  0
 10 11  2  0  0  0  0
 10 12  1  0  0  0  0
 12 13  2  0  0  0  0
 13 14  1  0  0  0  0
 13 38  1  0  0  0  0
 14 15  1  0  0  0  0
 15 16  1  0  0  0  0
 15 36  1  0  0  0  0
 15 37  1  0  0  0  0
 16 17  1  0  0  0  0
 16 21  2  0  0  0  0
 17 18  2  0  0  0  0
 17 35  1  0  0  0  0
 18 19  1  0  0  0  0
 18 34  1  0  0  0  0
 19 20  2  0  0  0  0
 19 24  1  0  0  0  0
 20 21  1  0  0  0  0
 20 23  1  0  0  0  0
 21 22  1  0  0  0  0
 24 25  1  0  0  0  0
 24 29  1  0  0  0  0
 24 33  1  0  0  0  0
 25 26  1  0  0  0  0
 25 27  1  0  0  0  0
 25 28  1  0  0  0  0
 29 30  1  0  0  0  0
 29 31  1  0  0  0  0
 29 32  1  0  0  0  0
 43 44  1  0  0  0  0
 43 45  1  0  0  0  0
 43 46  1  0  0  0  0
M  END
> <Gold.Goldscore.Fitness>
67.7756

> <Gold.Goldscore.External.HBond>
1.4847

> <Gold.Protein.ActiveResidues>
 GLU87   ILE88   VAL90   ASN91   ALA92   ASP94   ASN95   ARG98   ILE118  ASN120 
 LYS123  GLY124  ILE125  ILE141  PHE142  THR147  SER148  SER149  ASN150  TYR151 
 GLY160  GLY161  ARG162  ASN163  GLY164  TYR165  GLY166  ALA167  LYS168  LEU169 
 THR181  THR215  ILE217  ILE317  GLN376  LYS378  ILE33   TYR34   MG903  

> <Gold.Goldscore.Internal.HBond>
0.0

> <Gold.Goldscore.Internal.Torsion.Weighted>
-4.6232

> <Gold.Protein.RotatedTorsions>
[ 8833 2752 2751 2750 ] final  -92.65 input   60.00 | X-H torsion
[ 6906  969  968  965 ] final -179.89 input   59.99 | X-H torsion
[ 6910  975  974  971 ] final  -12.12 input   60.00 | X-H torsion
[ 6897  962  961  958 ] final   71.11 input   60.00 | X-H torsion
[ 9084 2997 2996 2994 ] final  -38.60 input   60.00 | X-H torsion
[ 7406 1497 1496 1493 ] final  170.76 input   60.00 | X-H torsion
[ 7140 1220 1219 1216 ] final  115.27 input   60.00 | X-H torsion
[ 6926  995  994  992 ] final   25.13 input   60.0

> <Gold.Goldscore.Constraint.Score>
0.0

> <Gold.Id.Protein>
1ZXM|1ZXM_protein|mol2

> <Gold.Protein.RotatedAtoms>
   40.6750    3.3830   41.8637 H   0  0  0  0  0  0  0  0  0  0  0  0  # atno 6897 bound_to 962 
   42.5663   -2.5035   38.2571 H   0  0  0  0  0  0  0  0  0  0  0  0  # atno 6906 bound_to 969 
   38.8111   -4.3840   40.0676 H   0  0  0  0  0  0  0  0  0  0  0  0  # atno 6910 bound_to 975 
   45.8911    1.1244   38.6740 H   0  0  0  0  0  0  0  0  0  0  0  0  # atno 6926 bound_to 995 
   28.0475    0.1168   43.0607 H   0  0  0  0  0  0  0  0  0  0  0  0  # atno 7140 bound_to 1220
   28.2838   -0.9017   41.0

> <Gold.Version>
5.3.0

> <Gold.Goldscore.Internal.Correction>
-0.0166

> <Gold.Goldscore.Internal.Vdw>
-1.3472

> <Gold.Goldscore.Internal.Vdw.Weighted>
-1.3472

> <Gold.Goldscore.External.HBond.Weighted>
1.4847

> <Gold.Goldscore.External.Vdw.Weighted>
72.2447

> <Gold.Goldscore.Internal.HBond.Weighted>
0.0

> <Gold.Goldscore.Hbonds>
donor molecule, donor type, donor heavy atom, donor atom, acceptor molecule, acceptor atom, score
      L1  H     1    27       P1   757  0.74

> <Gold.Goldscore.External.Vdw>
52.5416

> <Gold.Goldscore.Internal.Torsion>
-4.6232

> <Gold.Goldscore.Internal.Correction.Weighted>
-0.0166

> <Gold.Version>
5.3.0

> <Gold.Id.Protein>
1ZXM|1ZXM_protein|mol2

> <Gold.ASP.Fitness>
22.7758

> <Gold.ASP.ASP>
29.3160

> <Gold.ASP.Map>
-146.5800

> <Gold.ASP.DEClash>
2.1184

> <Gold.ASP.DEInternal>
4.4217

> <Gold.ASP.Internal.Correction>
0.1091

> <Gold.Protein.RotatedTorsions>
[ 8924 2752 2751 2750 ] final -152.58 input   60.00 | X-H torsion
[ 6908  969  968  965 ] final   47.06 input   59.99 | X-H torsion
[ 6912  975  974  971 ] final   25.61 input   60.00 | X-H torsion
[ 6899  962  961  958 ] final   14.82 input   60.00 | X-H torsion
[ 9165 2997 2996 2994 ] final -163.99 input   60.00 | X-H torsion
[ 7410 1497 1496 1493 ] final -115.74 input   60.00 | X-H torsion
[ 7137 1220 1219 1216 ] final  150.66 input   60.00 | X-H torsion
[ 6928  995  994  992 ] final   45.59 input   60.00 | X-H torsion

> <Gold.Protein.ActiveResidues>
 GLU87   ILE88   VAL90   ASN91   ALA92   ASP94   ASN95   ARG98   ILE118  ASN120 
 LYS123  GLY124  ILE125  ILE141  PHE142  THR147  SER148  SER149  ASN150  TYR151 
 GLY160  GLY161  ARG162  ASN163  GLY164  TYR165  GLY166  ALA167  LYS168  LEU169 
 THR181  THR215  ILE217  ILE317  GLN376  LYS378  ILE33   TYR34   MG903  

> <Gold.Protein.RotatedAtoms>
   41.4317    3.6183   41.4737 H   0  0  0  0  0  0  0  0  0  0  0  0  # atno 6899 bound_to 962 
   41.0055   -2.3396   38.9548 H   0  0  0  0  0  0  0  0  0  0  0  0  # atno 6908 bound_to 969 
   38.8649   -4.9839   40.0057 H   0  0  0  0  0  0  0  0  0  0  0  0  # atno 6912 bound_to 975 
   45.5803    1.1468   38.7901 H   0  0  0  0  0  0  0  0  0  0  0  0  # atno 6928 bound_to 995 
   28.4747    0.0701   43.4339 H   0  0  0  0  0  0  0  0  0  0  0  0  # atno 7137 bound_to 1220
   28.2567    0.0190   41.6961 H   0  0  0  0  0  0  0  0  0  0  0  0  # atno 7410 bound_to 1497
   43.3693   -0.3591   31.0838 H   0  0  0  0  0  0  0  0  0  0  0  0  # atno 8924 bound_to 2752
   44.0435   -0.9349   29.6833 H   0  0  0  0  0  0  0  0  0  0  0  0  # atno 8925 bound_to 2752
   43.6016    0.6586   29.7963 H   0  0  0  0  0  0  0  0  0  0  0  0  # atno 8926 bound_to 2752
   33.9619   -4.5681   45.5491 H   0  0  0  0  0  0  0  0  0  0  0  0  # atno 9165 bound_to 2997
   42.2296   -3.2456   39.5282 LP  0  0  0  0  0  0  0  0  0  0  0  0  # atno 11896 bound_to 969 
   42.4237   -2.3789   38.1579 LP  0  0  0  0  0  0  0  0  0  0  0  0  # atno 11897 bound_to 969 
   37.8181   -3.9024   40.6243 LP  0  0  0  0  0  0  0  0  0  0  0  0  # atno 11898 bound_to 975 
   37.4922   -5.5002   40.7108 LP  0  0  0  0  0  0  0  0  0  0  0  0  # atno 11899 bound_to 975 
   41.6646    4.8327   42.5315 LP  0  0  0  0  0  0  0  0  0  0  0  0  # atno 11904 bound_to 962 
   40.3429    3.8816   42.6540 LP  0  0  0  0  0  0  0  0  0  0  0  0  # atno 11905 bound_to 962 
   34.7354   -5.1326   44.2334 LP  0  0  0  0  0  0  0  0  0  0  0  0  # atno 11912 bound_to 2997
   34.0912   -3.6321   44.2242 LP  0  0  0  0  0  0  0  0  0  0  0  0  # atno 11913 bound_to 2997
   27.6777   -1.3216   40.9781 LP  0  0  0  0  0  0  0  0  0  0  0  0  # atno 11922 bound_to 1497
   26.7047   -0.4137   41.9245 LP  0  0  0  0  0  0  0  0  0  0  0  0  # atno 11923 bound_to 1497
   26.8487    0.0090   43.4486 LP  0  0  0  0  0  0  0  0  0  0  0  0  # atno 11930 bound_to 1220
   27.6886   -0.1906   44.8347 LP  0  0  0  0  0  0  0  0  0  0  0  0  # atno 11931 bound_to 1220

$$$$
****|SGG-4|sdf|1|dock28
  -GOLD-   9 72311463D 1   1.00000     0.00000

 46 48  0  0  0  0  0  0  0  0  1 V2000
   39.3940    2.2374   37.1240 S   0  0  0  0  0  0  0  0  0  0  0  0
   40.2141    0.9988   36.2611 C   0  0  0  0  0  0  0  0  0  0  0  0
   40.3174   -0.1539   36.8861 N   0  0  0  0  0  0  0  0  0  0  0  0
   39.7148   -0.0648   38.1249 C   0  0  0  0  0  0  0  0  0  0  0  0
   39.1520    1.1582   38.4372 C   0  0  0  0  0  0  0  0  0  0  0  0
   38.4614    1.6039   39.6855 C   0  0  0  0  0  0  0  0  0  0  0  0
   36.6518    1.6000   39.4720 S   0  0  0  0  0  0  0  0  0  0  0  0
   36.3727   -0.1351   39.5133 C   0  0  0  0  0  0  0  0  0  0  0  0
   37.0589   -0.9476   38.6236 N   0  0  0  0  0  0  0  0  0  0  0  0
   36.8441   -2.3202   38.6304 C   0  0  0  0  0  0  0  0  0  0  0  0
   37.5393   -3.1476   37.7455 O   0  0  0  0  0  0  0  0  0  0  0  0
   35.9592   -2.8430   39.4849 N   0  0  0  0  0  0  0  0  0  0  0  0
   35.3308   -1.9927   40.3058 C   0  0  0  0  0  0  0  0  0  0  0  0
   34.1130   -2.6932   41.3871 S   0  0  0  0  0  0  0  0  0  0  0  0
   32.8742   -3.0344   40.1105 C   0  0  0  0  0  0  0  0  0  0  0  0
   32.3756   -1.7767   39.4454 C   0  0  0  0  0  0  0  0  0  0  0  0
   33.2589   -0.9128   38.7871 C   0  0  0  0  0  0  0  0  0  0  0  0
   32.7857    0.2365   38.1461 C   0  0  0  0  0  0  0  0  0  0  0  0
   31.4212    0.5580   38.1626 C   0  0  0  0  0  0  0  0  0  0  0  0
   30.5416   -0.3040   38.8330 C   0  0  0  0  0  0  0  0  0  0  0  0
   31.0124   -1.4553   39.4692 C   0  0  0  0  0  0  0  0  0  0  0  0
   30.3050   -2.1037   39.9824 H   0  0  0  0  0  0  0  0  0  0  0  0
   29.4756   -0.0882   38.8622 H   0  0  0  0  0  0  0  0  0  0  0  0
   30.8686    1.7798   37.4494 C   0  0  0  0  0  0  0  0  0  0  0  0
   29.7226    1.3816   36.5168 C   0  0  0  0  0  0  0  0  0  0  0  0
   30.0635    0.7120   35.7194 H   0  0  0  0  0  0  0  0  0  0  0  0
   28.9294    0.8649   37.0689 H   0  0  0  0  0  0  0  0  0  0  0  0
   29.2802    2.2667   36.0475 H   0  0  0  0  0  0  0  0  0  0  0  0
   31.9378    2.5685   36.6884 C   0  0  0  0  0  0  0  0  0  0  0  0
   32.2890    2.0357   35.7983 H   0  0  0  0  0  0  0  0  0  0  0  0
   32.8053    2.7700   37.3262 H   0  0  0  0  0  0  0  0  0  0  0  0
   31.5357    3.5315   36.3547 H   0  0  0  0  0  0  0  0  0  0  0  0
   30.4589    2.4629   38.2057 H   0  0  0  0  0  0  0  0  0  0  0  0
   33.4986    0.8726   37.6273 H   0  0  0  0  0  0  0  0  0  0  0  0
   34.3242   -1.1316   38.7602 H   0  0  0  0  0  0  0  0  0  0  0  0
   32.0177   -3.5629   40.5467 H   0  0  0  0  0  0  0  0  0  0  0  0
   33.3082   -3.7071   39.3613 H   0  0  0  0  0  0  0  0  0  0  0  0
   35.4938   -0.6655   40.3637 N   0  0  0  0  0  0  0  0  0  0  0  0
   37.7131   -0.5330   37.9748 H   0  0  0  0  0  0  0  0  0  0  0  0
   38.7262    0.9198   40.5004 H   0  0  0  0  0  0  0  0  0  0  0  0
   38.7846    2.6103   39.9729 H   0  0  0  0  0  0  0  0  0  0  0  0
   39.7153   -0.9360   38.7695 H   0  0  0  0  0  0  0  0  0  0  0  0
   40.7670    1.2720   34.9071 C   0  0  0  0  0  0  0  0  0  0  0  0
   39.9799    1.6407   34.2413 H   0  0  0  0  0  0  0  0  0  0  0  0
   41.1773    0.3545   34.4734 H   0  0  0  0  0  0  0  0  0  0  0  0
   41.5580    2.0278   34.9423 H   0  0  0  0  0  0  0  0  0  0  0  0
  1  2  1  0  0  0  0
  1  5  1  0  0  0  0
  2  3  2  0  0  0  0
  2 43  1  0  0  0  0
  3  4  1  0  0  0  0
  4  5  2  0  0  0  0
  4 42  1  0  0  0  0
  5  6  1  0  0  0  0
  6  7  1  0  0  0  0
  6 40  1  0  0  0  0
  6 41  1  0  0  0  0
  7  8  1  0  0  0  0
  8  9  1  0  0  0  0
  8 38  2  0  0  0  0
  9 10  1  0  0  0  0
  9 39  1  0  0  0  0
 10 11  2  0  0  0  0
 10 12  1  0  0  0  0
 12 13  2  0  0  0  0
 13 14  1  0  0  0  0
 13 38  1  0  0  0  0
 14 15  1  0  0  0  0
 15 16  1  0  0  0  0
 15 36  1  0  0  0  0
 15 37  1  0  0  0  0
 16 17  1  0  0  0  0
 16 21  2  0  0  0  0
 17 18  2  0  0  0  0
 17 35  1  0  0  0  0
 18 19  1  0  0  0  0
 18 34  1  0  0  0  0
 19 20  2  0  0  0  0
 19 24  1  0  0  0  0
 20 21  1  0  0  0  0
 20 23  1  0  0  0  0
 21 22  1  0  0  0  0
 24 25  1  0  0  0  0
 24 29  1  0  0  0  0
 24 33  1  0  0  0  0
 25 26  1  0  0  0  0
 25 27  1  0  0  0  0
 25 28  1  0  0  0  0
 29 30  1  0  0  0  0
 29 31  1  0  0  0  0
 29 32  1  0  0  0  0
 43 44  1  0  0  0  0
 43 45  1  0  0  0  0
 43 46  1  0  0  0  0
M  END
> <Gold.Goldscore.Fitness>
67.7756

> <Gold.Goldscore.External.HBond>
1.4847

> <Gold.Protein.ActiveResidues>
 GLU87   ILE88   VAL90   ASN91   ALA92   ASP94   ASN95   ARG98   ILE118  ASN120 
 LYS123  GLY124  ILE125  ILE141  PHE142  THR147  SER148  SER149  ASN150  TYR151 
 GLY160  GLY161  ARG162  ASN163  GLY164  TYR165  GLY166  ALA167  LYS168  LEU169 
 THR181  THR215  ILE217  ILE317  GLN376  LYS378  ILE33   TYR34   MG903  

> <Gold.Goldscore.Internal.HBond>
0.0

> <Gold.Goldscore.Internal.Torsion.Weighted>
-4.6232

> <Gold.Protein.RotatedTorsions>
[ 8833 2752 2751 2750 ] final  -92.65 input   60.00 | X-H torsion
[ 6906  969  968  965 ] final -179.89 input   59.99 | X-H torsion
[ 6910  975  974  971 ] final  -12.12 input   60.00 | X-H torsion
[ 6897  962  961  958 ] final   71.11 input   60.00 | X-H torsion
[ 9084 2997 2996 2994 ] final  -38.60 input   60.00 | X-H torsion
[ 7406 1497 1496 1493 ] final  170.76 input   60.00 | X-H torsion
[ 7140 1220 1219 1216 ] final  115.27 input   60.00 | X-H torsion
[ 6926  995  994  992 ] final   25.13 input   60.0

> <Gold.Goldscore.Constraint.Score>
0.0

> <Gold.Id.Protein>
1ZXM|1ZXM_protein|mol2

> <Gold.Protein.RotatedAtoms>
   40.6750    3.3830   41.8637 H   0  0  0  0  0  0  0  0  0  0  0  0  # atno 6897 bound_to 962 
   42.5663   -2.5035   38.2571 H   0  0  0  0  0  0  0  0  0  0  0  0  # atno 6906 bound_to 969 
   38.8111   -4.3840   40.0676 H   0  0  0  0  0  0  0  0  0  0  0  0  # atno 6910 bound_to 975 
   45.8911    1.1244   38.6740 H   0  0  0  0  0  0  0  0  0  0  0  0  # atno 6926 bound_to 995 
   28.0475    0.1168   43.0607 H   0  0  0  0  0  0  0  0  0  0  0  0  # atno 7140 bound_to 1220
   28.2838   -0.9017   41.0

> <Gold.Version>
5.3.0

> <Gold.Goldscore.Internal.Correction>
-0.0166

> <Gold.Goldscore.Internal.Vdw>
-1.3472

> <Gold.Goldscore.Internal.Vdw.Weighted>
-1.3472

> <Gold.Goldscore.External.HBond.Weighted>
1.4847

> <Gold.Goldscore.External.Vdw.Weighted>
72.2447

> <Gold.Goldscore.Internal.HBond.Weighted>
0.0

> <Gold.Goldscore.Hbonds>
donor molecule, donor type, donor heavy atom, donor atom, acceptor molecule, acceptor atom, score
      L1  H     1    27       P1   757  0.74

> <Gold.Goldscore.External.Vdw>
52.5416

> <Gold.Goldscore.Internal.Torsion>
-4.6232

> <Gold.Goldscore.Internal.Correction.Weighted>
-0.0166

> <Gold.Version>
5.3.0

> <Gold.Id.Protein>
1ZXM|1ZXM_protein|mol2

> <Gold.ASP.Fitness>
22.3735

> <Gold.ASP.ASP>
28.8640

> <Gold.ASP.Map>
-144.3200

> <Gold.ASP.DEClash>
0.7242

> <Gold.ASP.DEInternal>
5.7662

> <Gold.ASP.Internal.Correction>
0.1091

> <Gold.Protein.RotatedTorsions>
[ 8924 2752 2751 2750 ] final  113.68 input   60.00 | X-H torsion
[ 6908  969  968  965 ] final  -43.04 input   59.99 | X-H torsion
[ 6912  975  974  971 ] final -119.47 input   60.00 | X-H torsion
[ 6899  962  961  958 ] final  -27.94 input   60.00 | X-H torsion
[ 9165 2997 2996 2994 ] final  164.11 input   60.00 | X-H torsion
[ 7410 1497 1496 1493 ] final  -44.94 input   60.00 | X-H torsion
[ 7137 1220 1219 1216 ] final   21.20 input   60.00 | X-H torsion
[ 6928  995  994  992 ] final   44.25 input   60.00 | X-H torsion

> <Gold.Protein.ActiveResidues>
 GLU87   ILE88   VAL90   ASN91   ALA92   ASP94   ASN95   ARG98   ILE118  ASN120 
 LYS123  GLY124  ILE125  ILE141  PHE142  THR147  SER148  SER149  ASN150  TYR151 
 GLY160  GLY161  ARG162  ASN163  GLY164  TYR165  GLY166  ALA167  LYS168  LEU169 
 THR181  THR215  ILE217  ILE317  GLN376  LYS378  ILE33   TYR34   MG903  

> <Gold.Protein.RotatedAtoms>
   41.8706    4.1188   41.6240 H   0  0  0  0  0  0  0  0  0  0  0  0  # atno 6899 bound_to 962 
   41.7749   -3.1503   39.6668 H   0  0  0  0  0  0  0  0  0  0  0  0  # atno 6908 bound_to 969 
   37.5088   -4.1176   40.7809 H   0  0  0  0  0  0  0  0  0  0  0  0  # atno 6912 bound_to 975 
   45.5991    1.1444   38.7793 H   0  0  0  0  0  0  0  0  0  0  0  0  # atno 6928 bound_to 995 
   26.7909   -0.0142   43.5907 H   0  0  0  0  0  0  0  0  0  0  0  0  # atno 7137 bound_to 1220
   27.2541    0.1153   42.0984 H   0  0  0  0  0  0  0  0  0  0  0  0  # atno 7410 bound_to 1497
   43.4365    0.7158   30.1945 H   0  0  0  0  0  0  0  0  0  0  0  0  # atno 8924 bound_to 2752
   43.5134   -0.7510   30.9624 H   0  0  0  0  0  0  0  0  0  0  0  0  # atno 8925 bound_to 2752
   44.0644   -0.6002   29.4065 H   0  0  0  0  0  0  0  0  0  0  0  0  # atno 8926 bound_to 2752
   34.2026   -5.0039   45.4194 H   0  0  0  0  0  0  0  0  0  0  0  0  # atno 9165 bound_to 2997
   42.7062   -2.6764   38.4193 LP  0  0  0  0  0  0  0  0  0  0  0  0  # atno 11896 bound_to 969 
   41.1723   -2.1317   38.5499 LP  0  0  0  0  0  0  0  0  0  0  0  0  # atno 11897 bound_to 969 
   37.8031   -5.6988   40.5331 LP  0  0  0  0  0  0  0  0  0  0  0  0  # atno 11898 bound_to 975 
   38.8729   -4.5762   40.0213 LP  0  0  0  0  0  0  0  0  0  0  0  0  # atno 11899 bound_to 975 
   41.0999    4.7447   42.9133 LP  0  0  0  0  0  0  0  0  0  0  0  0  # atno 11904 bound_to 962 
   40.4655    3.4656   42.1208 LP  0  0  0  0  0  0  0  0  0  0  0  0  # atno 11905 bound_to 962 
   34.7046   -4.7427   43.8936 LP  0  0  0  0  0  0  0  0  0  0  0  0  # atno 11912 bound_to 2997
   33.8796   -3.5832   44.6946 LP  0  0  0  0  0  0  0  0  0  0  0  0  # atno 11913 bound_to 2997
   28.4401   -0.5804   41.2282 LP  0  0  0  0  0  0  0  0  0  0  0  0  # atno 11922 bound_to 1497
   26.9521   -1.2519   41.2692 LP  0  0  0  0  0  0  0  0  0  0  0  0  # atno 11923 bound_to 1497
   27.8434   -0.1828   44.8203 LP  0  0  0  0  0  0  0  0  0  0  0  0  # atno 11930 bound_to 1220
   28.3898    0.0861   43.3051 LP  0  0  0  0  0  0  0  0  0  0  0  0  # atno 11931 bound_to 1220

$$$$
****|SGG-4|sdf|1|dock20
  -GOLD-   9 72311453D 1   1.00000     0.00000

 46 48  0  0  0  0  0  0  0  0  1 V2000
   37.9284    0.1837   36.4538 S   0  0  0  0  0  0  0  0  0  0  0  0
   39.6208    0.0991   36.7369 C   0  0  0  0  0  0  0  0  0  0  0  0
   40.0619    0.8122   37.7502 N   0  0  0  0  0  0  0  0  0  0  0  0
   39.0060    1.4709   38.3477 C   0  0  0  0  0  0  0  0  0  0  0  0
   37.7621    1.2538   37.7861 C   0  0  0  0  0  0  0  0  0  0  0  0
   36.4315    1.8256   38.1555 C   0  0  0  0  0  0  0  0  0  0  0  0
   36.1079    1.6371   39.9388 S   0  0  0  0  0  0  0  0  0  0  0  0
   36.1421   -0.1175   40.0416 C   0  0  0  0  0  0  0  0  0  0  0  0
   37.0541   -0.8184   39.2672 N   0  0  0  0  0  0  0  0  0  0  0  0
   37.0897   -2.2062   39.3235 C   0  0  0  0  0  0  0  0  0  0  0  0
   38.0126   -2.9200   38.5556 O   0  0  0  0  0  0  0  0  0  0  0  0
   36.2270   -2.8546   40.1120 N   0  0  0  0  0  0  0  0  0  0  0  0
   35.3722   -2.1082   40.8217 C   0  0  0  0  0  0  0  0  0  0  0  0
   34.1916   -2.9850   41.8118 S   0  0  0  0  0  0  0  0  0  0  0  0
   33.2164   -3.6448   40.4355 C   0  0  0  0  0  0  0  0  0  0  0  0
   32.4697   -2.5657   39.6933 C   0  0  0  0  0  0  0  0  0  0  0  0
   31.9469   -2.8014   38.4163 C   0  0  0  0  0  0  0  0  0  0  0  0
   31.2290   -1.8059   37.7458 C   0  0  0  0  0  0  0  0  0  0  0  0
   31.0316   -0.5464   38.3291 C   0  0  0  0  0  0  0  0  0  0  0  0
   31.5670   -0.3109   39.6035 C   0  0  0  0  0  0  0  0  0  0  0  0
   32.2797   -1.3064   40.2765 C   0  0  0  0  0  0  0  0  0  0  0  0
   32.6841   -1.0926   41.2639 H   0  0  0  0  0  0  0  0  0  0  0  0
   31.4291    0.6533   40.0883 H   0  0  0  0  0  0  0  0  0  0  0  0
   30.2295    0.5463   37.6439 C   0  0  0  0  0  0  0  0  0  0  0  0
   29.9515    0.1714   36.1867 C   0  0  0  0  0  0  0  0  0  0  0  0
   30.8771    0.0866   35.6067 H   0  0  0  0  0  0  0  0  0  0  0  0
   29.4290   -0.7897   36.1219 H   0  0  0  0  0  0  0  0  0  0  0  0
   29.3208    0.9269   35.7062 H   0  0  0  0  0  0  0  0  0  0  0  0
   30.8900    1.9247   37.7326 C   0  0  0  0  0  0  0  0  0  0  0  0
   31.7846    1.9954   37.1048 H   0  0  0  0  0  0  0  0  0  0  0  0
   31.1811    2.1551   38.7632 H   0  0  0  0  0  0  0  0  0  0  0  0
   30.1947    2.7028   37.3985 H   0  0  0  0  0  0  0  0  0  0  0  0
   29.2609    0.6331   38.1548 H   0  0  0  0  0  0  0  0  0  0  0  0
   30.8200   -2.0323   36.7643 H   0  0  0  0  0  0  0  0  0  0  0  0
   32.0868   -3.7666   37.9344 H   0  0  0  0  0  0  0  0  0  0  0  0
   32.4921   -4.3814   40.8044 H   0  0  0  0  0  0  0  0  0  0  0  0
   33.8830   -4.1791   39.7481 H   0  0  0  0  0  0  0  0  0  0  0  0
   35.2871   -0.7725   40.8270 N   0  0  0  0  0  0  0  0  0  0  0  0
   37.6887   -0.3120   38.6659 H   0  0  0  0  0  0  0  0  0  0  0  0
   36.4214    2.8922   37.9016 H   0  0  0  0  0  0  0  0  0  0  0  0
   35.6272    1.3385   37.5936 H   0  0  0  0  0  0  0  0  0  0  0  0
   39.2039    2.1066   39.2028 H   0  0  0  0  0  0  0  0  0  0  0  0
   40.4858   -0.7272   35.8523 C   0  0  0  0  0  0  0  0  0  0  0  0
   40.1267   -1.7611   35.8260 H   0  0  0  0  0  0  0  0  0  0  0  0
   41.5142   -0.7337   36.2270 H   0  0  0  0  0  0  0  0  0  0  0  0
   40.4887   -0.3468   34.8259 H   0  0  0  0  0  0  0  0  0  0  0  0
  1  2  1  0  0  0  0
  1  5  1  0  0  0  0
  2  3  2  0  0  0  0
  2 43  1  0  0  0  0
  3  4  1  0  0  0  0
  4  5  2  0  0  0  0
  4 42  1  0  0  0  0
  5  6  1  0  0  0  0
  6  7  1  0  0  0  0
  6 40  1  0  0  0  0
  6 41  1  0  0  0  0
  7  8  1  0  0  0  0
  8  9  1  0  0  0  0
  8 38  2  0  0  0  0
  9 10  1  0  0  0  0
  9 39  1  0  0  0  0
 10 11  2  0  0  0  0
 10 12  1  0  0  0  0
 12 13  2  0  0  0  0
 13 14  1  0  0  0  0
 13 38  1  0  0  0  0
 14 15  1  0  0  0  0
 15 16  1  0  0  0  0
 15 36  1  0  0  0  0
 15 37  1  0  0  0  0
 16 17  1  0  0  0  0
 16 21  2  0  0  0  0
 17 18  2  0  0  0  0
 17 35  1  0  0  0  0
 18 19  1  0  0  0  0
 18 34  1  0  0  0  0
 19 20  2  0  0  0  0
 19 24  1  0  0  0  0
 20 21  1  0  0  0  0
 20 23  1  0  0  0  0
 21 22  1  0  0  0  0
 24 25  1  0  0  0  0
 24 29  1  0  0  0  0
 24 33  1  0  0  0  0
 25 26  1  0  0  0  0
 25 27  1  0  0  0  0
 25 28  1  0  0  0  0
 29 30  1  0  0  0  0
 29 31  1  0  0  0  0
 29 32  1  0  0  0  0
 43 44  1  0  0  0  0
 43 45  1  0  0  0  0
 43 46  1  0  0  0  0
M  END
> <Gold.Goldscore.Fitness>
67.7756

> <Gold.Goldscore.External.HBond>
1.4847

> <Gold.Protein.ActiveResidues>
 GLU87   ILE88   VAL90   ASN91   ALA92   ASP94   ASN95   ARG98   ILE118  ASN120 
 LYS123  GLY124  ILE125  ILE141  PHE142  THR147  SER148  SER149  ASN150  TYR151 
 GLY160  GLY161  ARG162  ASN163  GLY164  TYR165  GLY166  ALA167  LYS168  LEU169 
 THR181  THR215  ILE217  ILE317  GLN376  LYS378  ILE33   TYR34   MG903  

> <Gold.Goldscore.Internal.HBond>
0.0

> <Gold.Goldscore.Internal.Torsion.Weighted>
-4.6232

> <Gold.Protein.RotatedTorsions>
[ 8833 2752 2751 2750 ] final  -92.65 input   60.00 | X-H torsion
[ 6906  969  968  965 ] final -179.89 input   59.99 | X-H torsion
[ 6910  975  974  971 ] final  -12.12 input   60.00 | X-H torsion
[ 6897  962  961  958 ] final   71.11 input   60.00 | X-H torsion
[ 9084 2997 2996 2994 ] final  -38.60 input   60.00 | X-H torsion
[ 7406 1497 1496 1493 ] final  170.76 input   60.00 | X-H torsion
[ 7140 1220 1219 1216 ] final  115.27 input   60.00 | X-H torsion
[ 6926  995  994  992 ] final   25.13 input   60.0

> <Gold.Goldscore.Constraint.Score>
0.0

> <Gold.Id.Protein>
1ZXM|1ZXM_protein|mol2

> <Gold.Protein.RotatedAtoms>
   40.6750    3.3830   41.8637 H   0  0  0  0  0  0  0  0  0  0  0  0  # atno 6897 bound_to 962 
   42.5663   -2.5035   38.2571 H   0  0  0  0  0  0  0  0  0  0  0  0  # atno 6906 bound_to 969 
   38.8111   -4.3840   40.0676 H   0  0  0  0  0  0  0  0  0  0  0  0  # atno 6910 bound_to 975 
   45.8911    1.1244   38.6740 H   0  0  0  0  0  0  0  0  0  0  0  0  # atno 6926 bound_to 995 
   28.0475    0.1168   43.0607 H   0  0  0  0  0  0  0  0  0  0  0  0  # atno 7140 bound_to 1220
   28.2838   -0.9017   41.0

> <Gold.Version>
5.3.0

> <Gold.Goldscore.Internal.Correction>
-0.0166

> <Gold.Goldscore.Internal.Vdw>
-1.3472

> <Gold.Goldscore.Internal.Vdw.Weighted>
-1.3472

> <Gold.Goldscore.External.HBond.Weighted>
1.4847

> <Gold.Goldscore.External.Vdw.Weighted>
72.2447

> <Gold.Goldscore.Internal.HBond.Weighted>
0.0

> <Gold.Goldscore.Hbonds>
donor molecule, donor type, donor heavy atom, donor atom, acceptor molecule, acceptor atom, score
      L1  H     1    27       P1   757  0.74

> <Gold.Goldscore.External.Vdw>
52.5416

> <Gold.Goldscore.Internal.Torsion>
-4.6232

> <Gold.Goldscore.Internal.Correction.Weighted>
-0.0166

> <Gold.Version>
5.3.0

> <Gold.Id.Protein>
1ZXM|1ZXM_protein|mol2

> <Gold.ASP.Fitness>
21.9202

> <Gold.ASP.ASP>
28.7420

> <Gold.ASP.Map>
-143.7100

> <Gold.ASP.DEClash>
4.2852

> <Gold.ASP.DEInternal>
2.5366

> <Gold.ASP.Internal.Correction>
0.1091

> <Gold.Protein.RotatedTorsions>
[ 8924 2752 2751 2750 ] final -158.09 input   60.00 | X-H torsion
[ 6908  969  968  965 ] final  -28.72 input   59.99 | X-H torsion
[ 6912  975  974  971 ] final  113.00 input   60.00 | X-H torsion
[ 6899  962  961  958 ] final  -83.18 input   60.00 | X-H torsion
[ 9165 2997 2996 2994 ] final  113.40 input   60.00 | X-H torsion
[ 7410 1497 1496 1493 ] final -138.03 input   60.00 | X-H torsion
[ 7137 1220 1219 1216 ] final  101.64 input   60.00 | X-H torsion
[ 6928  995  994  992 ] final  142.29 input   60.00 | X-H torsion

> <Gold.Protein.ActiveResidues>
 GLU87   ILE88   VAL90   ASN91   ALA92   ASP94   ASN95   ARG98   ILE118  ASN120 
 LYS123  GLY124  ILE125  ILE141  PHE142  THR147  SER148  SER149  ASN150  TYR151 
 GLY160  GLY161  ARG162  ASN163  GLY164  TYR165  GLY166  ALA167  LYS168  LEU169 
 THR181  THR215  ILE217  ILE317  GLN376  LYS378  ILE33   TYR34   MG903  

> <Gold.Protein.RotatedAtoms>
   41.8587    4.7169   42.2530 H   0  0  0  0  0  0  0  0  0  0  0  0  # atno 6899 bound_to 962 
   41.5608   -3.0576   39.6609 H   0  0  0  0  0  0  0  0  0  0  0  0  # atno 6908 bound_to 969 
   37.9109   -5.7196   40.4767 H   0  0  0  0  0  0  0  0  0  0  0  0  # atno 6912 bound_to 975 
   45.3218    1.4977   40.1196 H   0  0  0  0  0  0  0  0  0  0  0  0  # atno 6928 bound_to 995 
   27.8349    0.1201   42.9961 H   0  0  0  0  0  0  0  0  0  0  0  0  # atno 7137 bound_to 1220
   28.4152   -0.2224   41.4780 H   0  0  0  0  0  0  0  0  0  0  0  0  # atno 7410 bound_to 1497
   43.3462   -0.2701   31.0859 H   0  0  0  0  0  0  0  0  0  0  0  0  # atno 8924 bound_to 2752
   44.0289   -0.9880   29.7570 H   0  0  0  0  0  0  0  0  0  0  0  0  # atno 8925 bound_to 2752
   43.6392    0.6226   29.7205 H   0  0  0  0  0  0  0  0  0  0  0  0  # atno 8926 bound_to 2752
   34.5910   -5.3131   44.7897 H   0  0  0  0  0  0  0  0  0  0  0  0  # atno 9165 bound_to 2997
   42.7665   -2.8219   38.5937 LP  0  0  0  0  0  0  0  0  0  0  0  0  # atno 11896 bound_to 969 
   41.3276   -2.0796   38.3814 LP  0  0  0  0  0  0  0  0  0  0  0  0  # atno 11897 bound_to 969 
   38.8433   -4.4582   40.0437 LP  0  0  0  0  0  0  0  0  0  0  0  0  # atno 11898 bound_to 975 
   37.4278   -4.2034   40.8170 LP  0  0  0  0  0  0  0  0  0  0  0  0  # atno 11899 bound_to 975 
   40.4516    4.1614   42.8525 LP  0  0  0  0  0  0  0  0  0  0  0  0  # atno 11904 bound_to 962 
   41.1257    3.4465   41.5482 LP  0  0  0  0  0  0  0  0  0  0  0  0  # atno 11905 bound_to 962 
   34.3988   -3.9965   43.8528 LP  0  0  0  0  0  0  0  0  0  0  0  0  # atno 11912 bound_to 2997
   33.7943   -4.0181   45.3696 LP  0  0  0  0  0  0  0  0  0  0  0  0  # atno 11913 bound_to 2997
   27.3269   -1.3609   41.0690 LP  0  0  0  0  0  0  0  0  0  0  0  0  # atno 11922 bound_to 1497
   26.8958   -0.1313   42.0532 LP  0  0  0  0  0  0  0  0  0  0  0  0  # atno 11923 bound_to 1497
   26.7872   -0.1201   44.2178 LP  0  0  0  0  0  0  0  0  0  0  0  0  # atno 11930 bound_to 1220
   28.3945   -0.1119   44.5064 LP  0  0  0  0  0  0  0  0  0  0  0  0  # atno 11931 bound_to 1220

$$$$
