@<TRIPOS>MOLECULE
1ZXM_HOH933
     1     0     1     0     0
SMALL
NO_CHARGES
****
Generated from the CSD - Crystal connectivity not present

@<TRIPOS>ATOM
     1 O       51.5774  12.1771  23.5279   O.3       1 HOH933   0.0000
@<TRIPOS>SUBSTRUCTURE
     1 HOH933      1 GROUP             0 B     HOH     0  
