@<TRIPOS>MOLECULE
A:1ZXM
    44    46     1     0     0
SMALL
USER_CHARGES
****
Generated from the CSD

@<TRIPOS>ATOM
     1 PG      41.1303   0.5840  33.9103   P.3       1 ANP901   0.0000
     2 O1G     39.7443   0.9680  33.4803   O.co2     1 ANP901  -1.0000
     3 O2G     41.9064  -0.1840  32.7563   O.co2     1 ANP901  -1.0000
     4 O3G     42.0244   1.8590  34.2514   O.co2     1 ANP901  -1.0000
     5 PB      39.9033  -0.3920  36.1914   P.3       1 ANP901   0.0000
     6 O1B     38.6343  -0.5980  35.4624   O.co2     1 ANP901  -1.0000
     7 O2B     40.1483  -1.4050  37.2625   O.co2     1 ANP901  -1.0000
     8 N3B     41.1933  -0.4640  35.1934   N.pl3     1 ANP901   0.0000
     9 PA      38.9113   2.0630  37.1765   P.3       1 ANP901   0.0000
    10 O1A     37.7963   1.9120  36.2354   O.co2     1 ANP901  -1.0000
    11 O2A     39.4893   3.4180  37.2435   O.co2     1 ANP901  -1.0000
    12 O3A     40.1003   1.0870  36.7905   O.2       1 ANP901  -1.0000
    13 O5'     38.6943   1.6200  38.7145   O.3       1 ANP901   0.0000
    14 C5'     37.4423   1.5600  39.1616   C.3       1 ANP901   0.0000
    15 C4'     37.0703   0.2690  39.8336   C.3       1 ANP901   0.0000
    16 O4'     35.7113   0.4520  40.0306   O.3       1 ANP901   0.0000
    17 C3'     37.1753  -1.0690  39.1146   C.3       1 ANP901   0.0000
    18 O3'     38.4913  -1.6300  39.2786   O.3       1 ANP901   0.0000
    19 C2'     36.0663  -1.8470  39.8416   C.3       1 ANP901   0.0000
    20 O2'     36.5823  -2.6640  40.9236   O.3       1 ANP901   0.0000
    21 C1'     35.0983  -0.7620  40.3906   C.3       1 ANP901   0.0000
    22 N9      33.8413  -0.5830  39.5756   N.pl3     1 ANP901   0.0000
    23 C8      33.7713   0.3380  38.5665   C.2       1 ANP901   0.0000
    24 N7      32.6053   0.3500  37.9745   N.2       1 ANP901   0.0000
    25 C5      31.8903  -0.5660  38.5775   C.ar      1 ANP901   0.0000
    26 C6      30.5903  -1.0030  38.3925   C.ar      1 ANP901   0.0000
    27 N6      29.8412  -0.4510  37.4385   N.pl3     1 ANP901   0.0000
    28 N1      30.0783  -2.0370  39.2156   N.ar      1 ANP901   0.0000
    29 C2      30.8953  -2.6180  40.2326   C.ar      1 ANP901   0.0000
    30 N3      32.1383  -2.1620  40.3776   N.ar      1 ANP901   0.0000
    31 C4      32.6653  -1.1790  39.6056   C.ar      1 ANP901   0.0000
    32 H       36.9354  -0.9565  38.0583   H         1 ANP901   0.0000
    33 H       38.6740  -1.7686  40.2447   H         1 ANP901   0.0000
    34 H       35.5380  -2.4787  39.1289   H         1 ANP901   0.0000
    35 H       37.0364  -2.0836  41.5891   H         1 ANP901   0.0000
    36 H       41.9706  -1.0987  35.3460   H         1 ANP901   0.0000
    37 H       36.7736   1.7050  38.3144   H         1 ANP901   0.0000
    38 H       37.3003   2.3674  39.8784   H         1 ANP901   0.0000
    39 H       37.5718   0.2036  40.7980   H         1 ANP901   0.0000
    40 H       34.5970   0.9905  38.2866   H         1 ANP901   0.0000
    41 H       28.8869  -0.7660  37.2966   H         1 ANP901   0.0000
    42 H       30.2251   0.2845  36.8537   H         1 ANP901   0.0000
    43 H       30.5125  -3.4121  40.8720   H         1 ANP901   0.0000
    44 H       34.9110  -0.8511  41.4597   H         1 ANP901   0.0000
@<TRIPOS>BOND
     1     1     2   ar
     2     1     3   ar
     3     1     4   ar
     4     5     6   ar
     5     5     7   ar
     6     1     8    1
     7     5     8    1
     8     9    10   ar
     9     9    11   ar
    10     5    12   ar
    11     9    12    1
    12     9    13    1
    13    13    14    1
    14    14    15    1
    15    15    16    1
    16    15    17    1
    17    17    18    1
    18    17    19    1
    19    19    20    1
    20    16    21    1
    21    19    21    1
    22    21    22    1
    23    22    23    1
    24    23    24    2
    25    24    25    1
    26    25    26   ar
    27    26    27    1
    28    26    28   ar
    29    28    29   ar
    30    29    30   ar
    31    22    31    1
    32    25    31   ar
    33    30    31   ar
    34    17    32    1
    35    18    33    1
    36    19    34    1
    37    20    35    1
    38     8    36    1
    39    14    37    1
    40    14    38    1
    41    15    39    1
    42    23    40    1
    43    27    41    1
    44    27    42    1
    45    29    43    1
    46    21    44    1
@<TRIPOS>SUBSTRUCTURE
     1 ANP901      1 GROUP             0 A     ANP     0  
