@<TRIPOS>MOLECULE
B:1ZXM
    44    46     1     0     0
SMALL
USER_CHARGES
****
Generated from the CSD

@<TRIPOS>ATOM
     1 PG      59.7215  12.4681  27.5401   P.3       1 ANP902   0.0000
     2 O1G     60.9955  11.7871  27.1741   O.co2     1 ANP902  -1.0000
     3 O2G     58.6755  12.4561  26.3350   O.co2     1 ANP902  -1.0000
     4 O3G     58.9905  11.7011  28.7321   O.co2     1 ANP902  -1.0000
     5 PB      61.3065  14.5112  28.4771   P.3       1 ANP902   0.0000
     6 O1B     62.3705  14.1172  27.5201   O.co2     1 ANP902  -1.0000
     7 O2B     61.2085  15.9712  28.7081   O.co2     1 ANP902  -1.0000
     8 N3B     59.8295  14.0551  27.9321   N.pl3     1 ANP902   0.0000
     9 PA      62.7075  13.1551  30.5022   P.3       1 ANP902   0.0000
    10 O1A     63.6655  12.7981  29.4572   O.co2     1 ANP902  -1.0000
    11 O2A     62.3065  12.0381  31.3722   O.co2     1 ANP902  -1.0000
    12 O3A     61.3735  13.7341  29.8702   O.2       1 ANP902  -1.0000
    13 O5'     63.1275  14.3762  31.4882   O.3       1 ANP902   0.0000
    14 C5'     64.4415  14.6682  31.5463   C.3       1 ANP902   0.0000
    15 C4'     64.8195  16.0682  31.1442   C.3       1 ANP902   0.0000
    16 O4'     66.2046  16.0062  31.1262   O.3       1 ANP902   0.0000
    17 C3'     64.4315  16.6612  29.8002   C.3       1 ANP902   0.0000
    18 O3'     63.1285  17.2702  29.8782   O.3       1 ANP902   0.0000
    19 C2'     65.5765  17.6692  29.6062   C.3       1 ANP902   0.0000
    20 O2'     65.2145  19.0102  30.0122   O.3       1 ANP902   0.0000
    21 C1'     66.7426  17.1502  30.4732   C.3       1 ANP902   0.0000
    22 N9      67.8226  16.4392  29.6802   N.pl3     1 ANP902   0.0000
    23 C8      67.7736  15.0852  29.4742   C.2       1 ANP902   0.0000
    24 N7      68.7856  14.6442  28.7721   N.2       1 ANP902   0.0000
    25 C5      69.5176  15.6892  28.4961   C.ar      1 ANP902   0.0000
    26 C6      70.6986  15.8322  27.7901   C.ar      1 ANP902   0.0000
    27 N6      71.2756  14.7552  27.2501   N.pl3     1 ANP902   0.0000
    28 N1      71.2736  17.1172  27.6491   N.ar      1 ANP902   0.0000
    29 C2      70.6436  18.2592  28.2341   C.ar      1 ANP902   0.0000
    30 N3      69.5096  18.0702  28.9071   N.ar      1 ANP902   0.0000
    31 C4      68.9226  16.8562  29.0622   C.ar      1 ANP902   0.0000
    32 H       59.0501  14.6995  27.8451   H         1 ANP902   0.0000
    33 H       64.9666  13.9781  30.8875   H         1 ANP902   0.0000
    34 H       64.7731  14.5140  32.5720   H         1 ANP902   0.0000
    35 H       64.5102  16.7539  31.9316   H         1 ANP902   0.0000
    36 H       64.4540  15.8991  29.0226   H         1 ANP902   0.0000
    37 H       63.1411  17.9928  30.5592   H         1 ANP902   0.0000
    38 H       64.9694  19.0099  30.9744   H         1 ANP902   0.0000
    39 H       65.8788  17.6768  28.5600   H         1 ANP902   0.0000
    40 H       67.1338  17.8969  31.1626   H         1 ANP902   0.0000
    41 H       66.9782  14.4455  29.8538   H         1 ANP902   0.0000
    42 H       72.1422  14.8506  26.7304   H         1 ANP902   0.0000
    43 H       70.8474  13.8414  27.3595   H         1 ANP902   0.0000
    44 H       71.0772  19.2530  28.1328   H         1 ANP902   0.0000
@<TRIPOS>BOND
     1     1     2   ar
     2     1     3   ar
     3     1     4   ar
     4     5     6   ar
     5     5     7   ar
     6     1     8    1
     7     5     8    1
     8     9    10   ar
     9     9    11   ar
    10     5    12   ar
    11     9    12    1
    12     9    13    1
    13    13    14    1
    14    14    15    1
    15    15    16    1
    16    15    17    1
    17    17    18    1
    18    17    19    1
    19    19    20    1
    20    16    21    1
    21    19    21    1
    22    21    22    1
    23    22    23    1
    24    23    24    2
    25    24    25    1
    26    25    26   ar
    27    26    27    1
    28    26    28   ar
    29    28    29   ar
    30    29    30   ar
    31    22    31    1
    32    25    31   ar
    33    30    31   ar
    34     8    32    1
    35    14    33    1
    36    14    34    1
    37    15    35    1
    38    17    36    1
    39    18    37    1
    40    20    38    1
    41    19    39    1
    42    21    40    1
    43    23    41    1
    44    27    42    1
    45    27    43    1
    46    29    44    1
@<TRIPOS>SUBSTRUCTURE
     1 ANP902      1 GROUP             0 B     ANP     0  
