#       Name:                asp ligand
#       Creating user name   ancka
#       Creation time:       Sun Oct 08 08:53:25 2023


#       File generated by GOLD software.
#

@<TRIPOS>MOLECULE
asp ligand
    48    51     1
SMALL
NO_CHARGES


@<TRIPOS>ATOM
      1 ****         1.4162  -4.3973   1.3025 S.3            1 S1                 0.0000
      2 ****         0.0077  -3.4569   1.6216 C.ar           1 S1                 0.0000
      3 ****        -0.5281  -2.9254   0.4468 C.ar           1 S1                 0.0000
      4 ****         0.2514  -3.3042  -0.6977 C.ar           1 S1                 0.0000
      5 ****         1.3290  -4.0947  -0.3732 C.ar           1 S1                 0.0000
      6 ****         2.0715  -4.5095  -1.0410 None           1 S1                 0.0000
      7 ****         0.0270  -3.0011  -1.7127 None           1 S1                 0.0000
      8 ****        -1.6941  -2.1265   0.5436 C.ar           1 S1                 0.0000
      9 ****        -2.2901  -1.8596   1.7902 C.ar           1 S1                 0.0000
     10 ****        -1.7252  -2.4096   2.9420 C.ar           1 S1                 0.0000
     11 ****        -0.5825  -3.2126   2.8750 C.ar           1 S1                 0.0000
     12 ****        -0.1537  -3.6344   3.7798 None           1 S1                 0.0000
     13 ****        -2.1678  -2.2174   3.9182 None           1 S1                 0.0000
     14 ****        -3.5208  -0.9891   1.8865 C.3            1 S1                 0.0000
     15 ****        -4.3808  -0.8677   0.2907 S.3            1 S1                 0.0000
     16 ****        -3.7225   0.6269  -0.2743 C.arp          1 S1                 0.0000
     17 ****        -4.5861   1.3450  -1.0062 N.am           1 S1                 0.0000
     18 ****        -4.2064   2.5453  -1.5032 C.arp          1 S1                 0.0000
     19 ****        -5.0174   3.2198  -2.1284 O.2            1 S1                 0.0000
     20 ****        -2.9256   2.9424  -1.2859 N.ar           1 S1                 0.0000
     21 ****        -2.1581   2.1845  -0.5886 C.arp          1 S1                 0.0000
     22 ****        -0.5045   2.6986  -0.3442 S.3            1 S1                 0.0000
     23 ****         0.2740   1.1109  -0.7377 C.3            1 S1                 0.0000
     24 ****         1.7781   1.1888  -0.6547 C.ar           1 S1                 0.0000
     25 ****         2.5146   0.1080  -0.1516 C.ar           1 S1                 0.0000
     26 ****         3.9007   0.1842  -0.0768 C.ar           1 S1                 0.0000
     27 ****         4.5914  -0.8505   0.4186 F              1 S1                 0.0000
     28 ****         4.5818   1.3181  -0.5009 C.ar           1 S1                 0.0000
     29 ****         3.8703   2.4078  -1.0227 C.ar           1 S1                 0.0000
     30 ****         2.4669   2.3328  -1.0938 C.ar           1 S1                 0.0000
     31 ****         1.9051   3.1750  -1.4997 None           1 S1                 0.0000
     32 ****         4.6122   3.6407  -1.4747 C.3            1 S1                 0.0000
     33 ****         4.1354   4.7803  -0.9025 F              1 S1                 0.0000
     34 ****         5.9435   3.6080  -1.1885 F              1 S1                 0.0000
     35 ****         4.5244   3.8315  -2.8198 F              1 S1                 0.0000
     36 ****         5.6663   1.3427  -0.4242 None           1 S1                 0.0000
     37 ****         2.0207  -0.7999   0.1857 None           1 S1                 0.0000
     38 ****        -0.0157   0.7915  -1.7459 None           1 S1                 0.0000
     39 ****        -0.0990   0.3444  -0.0482 None           1 S1                 0.0000
     40 ****        -2.5206   0.9953  -0.0351 N.ar           1 S1                 0.0000
     41 ****        -5.5296   1.0344  -1.1730 None           1 S1                 0.0000
     42 ****        -4.2021  -1.4079   2.6364 None           1 S1                 0.0000
     43 ****        -3.2401   0.0121   2.2313 None           1 S1                 0.0000
     44 ****        -2.1185  -1.7045  -0.3648 None           1 S1                 0.0000
     45 ****        -5.9482   2.8815  -2.2665 None           1 S1                 0.0000
     46 ****        -4.7479   4.1082  -2.5001 None           1 S1                 0.0000
     47 ****        -2.5877   3.8058  -1.6606 None           1 S1                 0.0000
     48 ****        -1.8927   0.4485   0.5189 None           1 S1                 0.0000
@<TRIPOS>BOND
    1    1    2 1     
    2    1    5 1     
    3    2    3 ar    
    4    2   11 ar    
    5    3    4 1     
    6    3    8 ar    
    7    4    5 2     
    8    4    7 1     
    9    5    6 1     
   10    8    9 ar    
   11    8   44 1     
   12    9   10 ar    
   13    9   14 1     
   14   10   11 ar    
   15   10   13 1     
   16   11   12 1     
   17   14   15 1     
   18   14   42 1     
   19   14   43 1     
   20   15   16 1     
   21   16   17 1     
   22   16   40 2     
   23   17   18 am    
   24   17   41 1     
   25   18   19 2     
   26   18   20 1     
   27   20   21 2     
   28   21   22 1     
   29   21   40 1     
   30   22   23 1     
   31   23   24 1     
   32   23   38 1     
   33   23   39 1     
   34   24   25 ar    
   35   24   30 ar    
   36   25   26 ar    
   37   25   37 1     
   38   26   27 1     
   39   26   28 ar    
   40   28   29 ar    
   41   28   36 1     
   42   29   30 ar    
   43   29   32 1     
   44   30   31 1     
   45   32   33 1     
   46   32   34 1     
   47   32   35 1     
   48   19   45 1     
   49   19   46 1     
   50   20   47 1     
   51   40   48 1     
@<TRIPOS>SUBSTRUCTURE
      1 S1             1
@<TRIPOS>SET
LONE_PAIRS      STATIC     ATOMS    <user>   **** ""
4 45 46 47 48
DONOR_HYDROGENS      STATIC     ATOMS    <user>   **** ""
1 41
ATOM$BLUE        STATIC     ATOMS    COLORGROUP SYSTEM
4 45 46 47 48
ATOM$RED        STATIC     ATOMS    COLORGROUP SYSTEM
1 41
