****|SAP-35|sdf|1|dock6
  -GOLD-   9 823 8533D 1   1.00000     0.00000

 44 47  0  0  0  0  0  0  0  0  1 V2000
   38.3695    1.0500   37.7344 S   0  0  0  0  0  0  0  0  0  0  0  0
   37.1615    0.4876   38.8273 C   0  0  0  0  0  0  0  0  0  0  0  0
   37.4905   -0.7640   39.3517 C   0  0  0  0  0  0  0  0  0  0  0  0
   38.7399   -1.2359   38.8251 C   0  0  0  0  0  0  0  0  0  0  0  0
   39.3147   -0.3541   37.9400 C   0  0  0  0  0  0  0  0  0  0  0  0
   40.2460   -0.4674   37.4024 H   0  0  0  0  0  0  0  0  0  0  0  0
   39.1888   -2.1861   39.0861 H   0  0  0  0  0  0  0  0  0  0  0  0
   36.5936   -1.3621   40.2709 C   0  0  0  0  0  0  0  0  0  0  0  0
   35.3942   -0.7229   40.6359 C   0  0  0  0  0  0  0  0  0  0  0  0
   35.1010    0.5281   40.0906 C   0  0  0  0  0  0  0  0  0  0  0  0
   35.9739    1.1481   39.1913 C   0  0  0  0  0  0  0  0  0  0  0  0
   35.7330    2.1222   38.7748 H   0  0  0  0  0  0  0  0  0  0  0  0
   34.1791    1.0427   40.3571 H   0  0  0  0  0  0  0  0  0  0  0  0
   34.4334   -1.3775   41.6002 C   0  0  0  0  0  0  0  0  0  0  0  0
   34.6318   -3.1833   41.6198 S   0  0  0  0  0  0  0  0  0  0  0  0
   34.0786   -3.5477   40.0237 C   0  0  0  0  0  0  0  0  0  0  0  0
   34.7927   -4.5083   39.4202 N   0  0  0  0  0  0  0  0  0  0  0  0
   34.4613   -4.9030   38.1686 C   0  0  0  0  0  0  0  0  0  0  0  0
   35.0863   -5.8172   37.6423 O   0  0  0  0  0  0  0  0  0  0  0  0
   33.4428   -4.2511   37.5497 N   0  0  0  0  0  0  0  0  0  0  0  0
   32.8226   -3.3294   38.1942 C   0  0  0  0  0  0  0  0  0  0  0  0
   31.5336   -2.4817   37.3706 S   0  0  0  0  0  0  0  0  0  0  0  0
   31.4303   -1.0828   38.5168 C   0  0  0  0  0  0  0  0  0  0  0  0
   31.1931    0.2187   37.7922 C   0  0  0  0  0  0  0  0  0  0  0  0
   32.2373    1.1398   37.6346 C   0  0  0  0  0  0  0  0  0  0  0  0
   32.0141    2.3382   36.9661 C   0  0  0  0  0  0  0  0  0  0  0  0
   33.0171    3.2155   36.8344 F   0  0  0  0  0  0  0  0  0  0  0  0
   30.7665    2.6447   36.4380 C   0  0  0  0  0  0  0  0  0  0  0  0
   29.7083    1.7340   36.5682 C   0  0  0  0  0  0  0  0  0  0  0  0
   29.9327    0.5232   37.2492 C   0  0  0  0  0  0  0  0  0  0  0  0
   29.1159   -0.1920   37.3540 H   0  0  0  0  0  0  0  0  0  0  0  0
   28.3527    2.0734   36.0008 C   0  0  0  0  0  0  0  0  0  0  0  0
   27.8490    1.0826   35.2147 F   0  0  0  0  0  0  0  0  0  0  0  0
   27.4092    2.3094   36.9545 F   0  0  0  0  0  0  0  0  0  0  0  0
   28.3840    3.1900   35.2226 F   0  0  0  0  0  0  0  0  0  0  0  0
   30.6287    3.5932   35.9243 H   0  0  0  0  0  0  0  0  0  0  0  0
   33.2301    0.9362   38.0280 H   0  0  0  0  0  0  0  0  0  0  0  0
   32.3557   -1.0075   39.1002 H   0  0  0  0  0  0  0  0  0  0  0  0
   30.6221   -1.2629   39.2355 H   0  0  0  0  0  0  0  0  0  0  0  0
   33.0987   -2.9400   39.4686 N   0  0  0  0  0  0  0  0  0  0  0  0
   35.5553   -4.9756   39.8835 H   0  0  0  0  0  0  0  0  0  0  0  0
   34.6062   -0.9812   42.6077 H   0  0  0  0  0  0  0  0  0  0  0  0
   33.4035   -1.1225   41.3272 H   0  0  0  0  0  0  0  0  0  0  0  0
   36.8380   -2.3386   40.6835 H   0  0  0  0  0  0  0  0  0  0  0  0
  1  2  1  0  0  0  0
  1  5  1  0  0  0  0
  2  3  2  0  0  0  0
  2 11  1  0  0  0  0
  3  4  1  0  0  0  0
  3  8  1  0  0  0  0
  4  5  2  0  0  0  0
  4  7  1  0  0  0  0
  5  6  1  0  0  0  0
  8  9  2  0  0  0  0
  8 44  1  0  0  0  0
  9 10  1  0  0  0  0
  9 14  1  0  0  0  0
 10 11  2  0  0  0  0
 10 13  1  0  0  0  0
 11 12  1  0  0  0  0
 14 15  1  0  0  0  0
 14 42  1  0  0  0  0
 14 43  1  0  0  0  0
 15 16  1  0  0  0  0
 16 17  1  0  0  0  0
 16 40  2  0  0  0  0
 17 18  1  0  0  0  0
 17 41  1  0  0  0  0
 18 19  2  0  0  0  0
 18 20  1  0  0  0  0
 20 21  2  0  0  0  0
 21 22  1  0  0  0  0
 21 40  1  0  0  0  0
 22 23  1  0  0  0  0
 23 24  1  0  0  0  0
 23 38  1  0  0  0  0
 23 39  1  0  0  0  0
 24 25  2  0  0  0  0
 24 30  1  0  0  0  0
 25 26  1  0  0  0  0
 25 37  1  0  0  0  0
 26 27  1  0  0  0  0
 26 28  2  0  0  0  0
 28 29  1  0  0  0  0
 28 36  1  0  0  0  0
 29 30  2  0  0  0  0
 29 32  1  0  0  0  0
 30 31  1  0  0  0  0
 32 33  1  0  0  0  0
 32 34  1  0  0  0  0
 32 35  1  0  0  0  0
M  END
> <Gold.Goldscore.Fitness>
66.0202

> <Gold.Goldscore.External.HBond>
7.1318

> <Gold.Protein.ActiveResidues>
 GLU87   ILE88   VAL90   ASN91   ALA92   ASP94   ASN95   ARG98   ILE118  ASN120 
 LYS123  GLY124  ILE125  ILE141  PHE142  THR147  SER148  SER149  ASN150  LYS157 
 THR159  GLY160  GLY161  ARG162  ASN163  GLY164  TYR165  GLY166  ALA167  LYS168 
 THR215  ILE217  GLN376  ILE33   TYR34   MG903  

> <Gold.Protein.RotatedWaterAtoms>
   32.4470    2.9410   36.3270 O.3 0  0  0  0  0  0  0  0  0  0  0  0  # atno 1    bound_to 2    3    AM1 OFF
   31.8359    3.0941   37.0946 H   0  0  0  0  0  0  0  0  0  0  0  0  # atno 2    bound_to 1    AM1 OFF
   31.9233    2.6242   35.5451 H   0  0  0  0  0  0  0  0  0  0  0  0  # atno 3    bound_to 1    AM1 OFF
   33.1269    2.2507   36.5746 LP  0  0  0  0  0  0  0  0  0  0  0  0  # atno 4    bound_to 1    AM1 OFF
   32.9099    3.7962   36.0938 LP  0  0  0  0  0  0  0  0  0  0  0  0  # atno 5    boun

> <Gold.Goldscore.Internal.HBond>
0.0

> <Gold.Goldscore.Internal.Torsion.Weighted>
-3.561

> <Gold.Protein.RotatedTorsions>
[ 7484 1497 1496 1493 ] final -108.15 input   60.00 | X-H torsion
[ 9179 2997 2996 2994 ] final  -52.84 input   60.00 | X-H torsion
[ 6913  975  974  971 ] final  -82.68 input   60.00 | X-H torsion
[ 6967 1046 1045 1044 ] final  -95.30 input   60.00 | X-H torsion
[ 6909  969  968  965 ] final   98.88 input   59.99 | X-H torsion

> <Gold.Goldscore.Constraint.Score>
0.0

> <Gold.Id.Protein>
1ZXM|1ZXM_protein|mol2

> <Gold.Protein.RotatedAtoms>
   41.4288   -2.0685   38.3092 H   0  0  0  0  0  0  0  0  0  0  0  0  # atno 6909 bound_to 969 
   37.9862   -3.8673   40.5387 H   0  0  0  0  0  0  0  0  0  0  0  0  # atno 6913 bound_to 975 
   40.2006   -9.0468   40.8017 H   0  0  0  0  0  0  0  0  0  0  0  0  # atno 6967 bound_to 1046
   39.1096   -8.3546   39.7634 H   0  0  0  0  0  0  0  0  0  0  0  0  # atno 6968 bound_to 1046
   38.5752   -9.1830   41.0960 H   0  0  0  0  0  0  0  0  0  0  0  0  # atno 6969 bound_to 1046
   28.1768    0.0826   41.7

> <Gold.Version>
5.3.0

> <Gold.Goldscore.Internal.Correction>
4.3684

> <Gold.Goldscore.Internal.Vdw>
0.6917

> <Gold.Goldscore.Internal.Vdw.Weighted>
0.6917

> <Gold.Goldscore.External.HBond.Weighted>
7.1318

> <Gold.Goldscore.External.Vdw.Weighted>
71.1262

> <Gold.Goldscore.Internal.HBond.Weighted>
0.0

> <Gold.Goldscore.Hbonds>
donor molecule, donor type, donor heavy atom, donor atom, acceptor molecule, acceptor atom, score
      P1  H   758  6690      AM2     1  0.87
      L1  H     9    34       P1   757  0.78
     AM2  H     1     2       P1   774  0.92
     AM2  H     1     3       P1  1497  0.99

> <Gold.Goldscore.External.Vdw>
51.7282

> <Gold.Goldscore.Internal.Torsion>
-3.561

> <Gold.Goldscore.Internal.Correction.Weighted>
4.3684

> <Gold.Goldscore.SBar>
-5.0

> <Gold.Version>
5.3.0

> <Gold.Id.Protein>
1ZXM|1ZXM_protein|mol2

> <Gold.ASP.Fitness>
38.1867

> <Gold.ASP.ASP>
42.8460

> <Gold.ASP.Map>
-214.2300

> <Gold.ASP.DEClash>
3.2246

> <Gold.ASP.DEInternal>
1.4348

> <Gold.ASP.Internal.Correction>
0.0967

> <Gold.Protein.RotatedTorsions>
[ 8832 2752 2751 2750 ] final   40.58 input   60.00 | X-H torsion
[ 6909  969  968  965 ] final   78.31 input   59.99 | X-H torsion
[ 6913  975  974  971 ] final  171.28 input   60.00 | X-H torsion
[ 6903  962  961  958 ] final -110.16 input   60.00 | X-H torsion
[ 9081 2997 2996 2994 ] final -130.02 input   60.00 | X-H torsion
[ 7408 1497 1496 1493 ] final -146.65 input   60.00 | X-H torsion
[ 7067 1220 1219 1216 ] final  -55.28 input   60.00 | X-H torsion
[ 6928  995  994  992 ] final -162.22 input   60.00 | X-H torsion

> <Gold.Protein.ActiveResidues>
 GLU87   ILE88   VAL90   ASN91   ALA92   ASP94   ASN95   ARG98   ILE118  ASN120 
 LYS123  GLY124  ILE125  ILE141  PHE142  THR147  SER148  SER149  ASN150  TYR151 
 GLY160  GLY161  ARG162  ASN163  GLY164  TYR165  GLY166  ALA167  LYS168  LEU169 
 THR181  THR215  ILE217  ILE317  GLN376  LYS378  ILE33   TYR34   MG903  

> <Gold.Protein.RotatedAtoms>
   41.6060    4.8367   42.5885 H   0  0  0  0  0  0  0  0  0  0  0  0  # atno 6903 bound_to 962 
   41.1908   -2.1272   38.5366 H   0  0  0  0  0  0  0  0  0  0  0  0  # atno 6909 bound_to 969 
   37.2918   -5.1574   40.8399 H   0  0  0  0  0  0  0  0  0  0  0  0  # atno 6913 bound_to 975 
   46.1145    1.6131   40.4637 H   0  0  0  0  0  0  0  0  0  0  0  0  # atno 6928 bound_to 995 
   27.1619   -0.1804   44.6759 H   0  0  0  0  0  0  0  0  0  0  0  0  # atno 7067 bound_to 1220
   28.4425   -0.3320   41.3941 H   0  0  0  0  0  0  0  0  0  0  0  0  # atno 7408 bound_to 1497
   43.9076    0.1411   29.3302 H   0  0  0  0  0  0  0  0  0  0  0  0  # atno 8832 bound_to 2752
   43.2786    0.3584   30.8482 H   0  0  0  0  0  0  0  0  0  0  0  0  # atno 8833 bound_to 2752
   43.8282   -1.1350   30.3848 H   0  0  0  0  0  0  0  0  0  0  0  0  # atno 8834 bound_to 2752
   33.8070   -4.0663   45.3964 H   0  0  0  0  0  0  0  0  0  0  0  0  # atno 9081 bound_to 2997
   41.7526   -3.1480   39.6726 LP  0  0  0  0  0  0  0  0  0  0  0  0  # atno 11896 bound_to 969 
   42.7141   -2.6904   38.4347 LP  0  0  0  0  0  0  0  0  0  0  0  0  # atno 11897 bound_to 969 
   38.7081   -5.3660   40.0661 LP  0  0  0  0  0  0  0  0  0  0  0  0  # atno 11898 bound_to 975 
   38.1865   -3.8618   40.4289 LP  0  0  0  0  0  0  0  0  0  0  0  0  # atno 11899 bound_to 975 
   40.3343    3.8216   42.5991 LP  0  0  0  0  0  0  0  0  0  0  0  0  # atno 11904 bound_to 962 
   41.4976    3.6657   41.4637 LP  0  0  0  0  0  0  0  0  0  0  0  0  # atno 11905 bound_to 962 
   34.6115   -5.3178   44.7371 LP  0  0  0  0  0  0  0  0  0  0  0  0  # atno 11912 bound_to 2997
   34.3711   -3.9524   43.8743 LP  0  0  0  0  0  0  0  0  0  0  0  0  # atno 11913 bound_to 2997
   27.1974   -1.3442   41.1238 LP  0  0  0  0  0  0  0  0  0  0  0  0  # atno 11922 bound_to 1497
   26.9979   -0.0376   42.0829 LP  0  0  0  0  0  0  0  0  0  0  0  0  # atno 11923 bound_to 1497
   28.6135   -0.0142   43.9596 LP  0  0  0  0  0  0  0  0  0  0  0  0  # atno 11930 bound_to 1220
   27.2460    0.0847   43.0727 LP  0  0  0  0  0  0  0  0  0  0  0  0  # atno 11931 bound_to 1220

$$$$
****|SAP-35|sdf|1|dock2
  -GOLD-   9 823 8533D 1   1.00000     0.00000

 44 47  0  0  0  0  0  0  0  0  1 V2000
   29.7017    0.7634   36.1956 S   0  0  0  0  0  0  0  0  0  0  0  0
   31.0219    0.4509   37.2583 C   0  0  0  0  0  0  0  0  0  0  0  0
   31.9387    1.5041   37.2568 C   0  0  0  0  0  0  0  0  0  0  0  0
   31.5283    2.5489   36.3618 C   0  0  0  0  0  0  0  0  0  0  0  0
   30.3411    2.2723   35.7252 C   0  0  0  0  0  0  0  0  0  0  0  0
   29.8175    2.8849   35.0041 H   0  0  0  0  0  0  0  0  0  0  0  0
   32.0890    3.4599   36.1941 H   0  0  0  0  0  0  0  0  0  0  0  0
   33.0834    1.3972   38.0848 C   0  0  0  0  0  0  0  0  0  0  0  0
   33.3028    0.2548   38.8766 C   0  0  0  0  0  0  0  0  0  0  0  0
   32.3628   -0.7768   38.8515 C   0  0  0  0  0  0  0  0  0  0  0  0
   31.2174   -0.6927   38.0540 C   0  0  0  0  0  0  0  0  0  0  0  0
   30.4939   -1.5032   38.0446 H   0  0  0  0  0  0  0  0  0  0  0  0
   32.5103   -1.6710   39.4551 H   0  0  0  0  0  0  0  0  0  0  0  0
   34.5367    0.1399   39.7402 C   0  0  0  0  0  0  0  0  0  0  0  0
   35.5882    1.6153   39.6041 S   0  0  0  0  0  0  0  0  0  0  0  0
   36.6645    1.0839   38.3609 C   0  0  0  0  0  0  0  0  0  0  0  0
   37.4598    2.0573   37.8948 N   0  0  0  0  0  0  0  0  0  0  0  0
   38.3622    1.7781   36.9254 C   0  0  0  0  0  0  0  0  0  0  0  0
   39.1212    2.6606   36.5397 O   0  0  0  0  0  0  0  0  0  0  0  0
   38.3750    0.5180   36.4183 N   0  0  0  0  0  0  0  0  0  0  0  0
   37.5659   -0.3498   36.9103 C   0  0  0  0  0  0  0  0  0  0  0  0
   37.5768   -1.9586   36.2248 S   0  0  0  0  0  0  0  0  0  0  0  0
   37.5767   -2.8610   37.7956 C   0  0  0  0  0  0  0  0  0  0  0  0
   36.4261   -3.8323   37.8835 C   0  0  0  0  0  0  0  0  0  0  0  0
   35.1075   -3.3799   37.7410 C   0  0  0  0  0  0  0  0  0  0  0  0
   34.0500   -4.2786   37.8228 C   0  0  0  0  0  0  0  0  0  0  0  0
   32.7941   -3.8310   37.6984 F   0  0  0  0  0  0  0  0  0  0  0  0
   34.2729   -5.6326   38.0383 C   0  0  0  0  0  0  0  0  0  0  0  0
   35.5833   -6.1141   38.1690 C   0  0  0  0  0  0  0  0  0  0  0  0
   36.6535   -5.2038   38.0912 C   0  0  0  0  0  0  0  0  0  0  0  0
   37.6764   -5.5695   38.1902 H   0  0  0  0  0  0  0  0  0  0  0  0
   35.8215   -7.5836   38.4111 C   0  0  0  0  0  0  0  0  0  0  0  0
   35.2572   -8.0238   39.5692 F   0  0  0  0  0  0  0  0  0  0  0  0
   35.3249   -8.3830   37.4264 F   0  0  0  0  0  0  0  0  0  0  0  0
   37.1464   -7.8833   38.5020 F   0  0  0  0  0  0  0  0  0  0  0  0
   33.4206   -6.3053   38.0997 H   0  0  0  0  0  0  0  0  0  0  0  0
   34.8899   -2.3292   37.5657 H   0  0  0  0  0  0  0  0  0  0  0  0
   37.5180   -2.1553   38.6328 H   0  0  0  0  0  0  0  0  0  0  0  0
   38.5270   -3.3967   37.9050 H   0  0  0  0  0  0  0  0  0  0  0  0
   36.6794   -0.1158   37.9160 N   0  0  0  0  0  0  0  0  0  0  0  0
   37.4322    2.9922   38.2685 H   0  0  0  0  0  0  0  0  0  0  0  0
   34.2352    0.0028   40.7853 H   0  0  0  0  0  0  0  0  0  0  0  0
   35.1090   -0.7487   39.4520 H   0  0  0  0  0  0  0  0  0  0  0  0
   33.8060    2.2103   38.0892 H   0  0  0  0  0  0  0  0  0  0  0  0
  1  2  1  0  0  0  0
  1  5  1  0  0  0  0
  2  3  2  0  0  0  0
  2 11  1  0  0  0  0
  3  4  1  0  0  0  0
  3  8  1  0  0  0  0
  4  5  2  0  0  0  0
  4  7  1  0  0  0  0
  5  6  1  0  0  0  0
  8  9  2  0  0  0  0
  8 44  1  0  0  0  0
  9 10  1  0  0  0  0
  9 14  1  0  0  0  0
 10 11  2  0  0  0  0
 10 13  1  0  0  0  0
 11 12  1  0  0  0  0
 14 15  1  0  0  0  0
 14 42  1  0  0  0  0
 14 43  1  0  0  0  0
 15 16  1  0  0  0  0
 16 17  1  0  0  0  0
 16 40  2  0  0  0  0
 17 18  1  0  0  0  0
 17 41  1  0  0  0  0
 18 19  2  0  0  0  0
 18 20  1  0  0  0  0
 20 21  2  0  0  0  0
 21 22  1  0  0  0  0
 21 40  1  0  0  0  0
 22 23  1  0  0  0  0
 23 24  1  0  0  0  0
 23 38  1  0  0  0  0
 23 39  1  0  0  0  0
 24 25  2  0  0  0  0
 24 30  1  0  0  0  0
 25 26  1  0  0  0  0
 25 37  1  0  0  0  0
 26 27  1  0  0  0  0
 26 28  2  0  0  0  0
 28 29  1  0  0  0  0
 28 36  1  0  0  0  0
 29 30  2  0  0  0  0
 29 32  1  0  0  0  0
 30 31  1  0  0  0  0
 32 33  1  0  0  0  0
 32 34  1  0  0  0  0
 32 35  1  0  0  0  0
M  END
> <Gold.Goldscore.Fitness>
66.0202

> <Gold.Goldscore.External.HBond>
7.1318

> <Gold.Protein.ActiveResidues>
 GLU87   ILE88   VAL90   ASN91   ALA92   ASP94   ASN95   ARG98   ILE118  ASN120 
 LYS123  GLY124  ILE125  ILE141  PHE142  THR147  SER148  SER149  ASN150  LYS157 
 THR159  GLY160  GLY161  ARG162  ASN163  GLY164  TYR165  GLY166  ALA167  LYS168 
 THR215  ILE217  GLN376  ILE33   TYR34   MG903  

> <Gold.Protein.RotatedWaterAtoms>
   32.4470    2.9410   36.3270 O.3 0  0  0  0  0  0  0  0  0  0  0  0  # atno 1    bound_to 2    3    AM1 OFF
   31.8359    3.0941   37.0946 H   0  0  0  0  0  0  0  0  0  0  0  0  # atno 2    bound_to 1    AM1 OFF
   31.9233    2.6242   35.5451 H   0  0  0  0  0  0  0  0  0  0  0  0  # atno 3    bound_to 1    AM1 OFF
   33.1269    2.2507   36.5746 LP  0  0  0  0  0  0  0  0  0  0  0  0  # atno 4    bound_to 1    AM1 OFF
   32.9099    3.7962   36.0938 LP  0  0  0  0  0  0  0  0  0  0  0  0  # atno 5    boun

> <Gold.Goldscore.Internal.HBond>
0.0

> <Gold.Goldscore.Internal.Torsion.Weighted>
-3.561

> <Gold.Protein.RotatedTorsions>
[ 7484 1497 1496 1493 ] final -108.15 input   60.00 | X-H torsion
[ 9179 2997 2996 2994 ] final  -52.84 input   60.00 | X-H torsion
[ 6913  975  974  971 ] final  -82.68 input   60.00 | X-H torsion
[ 6967 1046 1045 1044 ] final  -95.30 input   60.00 | X-H torsion
[ 6909  969  968  965 ] final   98.88 input   59.99 | X-H torsion

> <Gold.Goldscore.Constraint.Score>
0.0

> <Gold.Id.Protein>
1ZXM|1ZXM_protein|mol2

> <Gold.Protein.RotatedAtoms>
   41.4288   -2.0685   38.3092 H   0  0  0  0  0  0  0  0  0  0  0  0  # atno 6909 bound_to 969 
   37.9862   -3.8673   40.5387 H   0  0  0  0  0  0  0  0  0  0  0  0  # atno 6913 bound_to 975 
   40.2006   -9.0468   40.8017 H   0  0  0  0  0  0  0  0  0  0  0  0  # atno 6967 bound_to 1046
   39.1096   -8.3546   39.7634 H   0  0  0  0  0  0  0  0  0  0  0  0  # atno 6968 bound_to 1046
   38.5752   -9.1830   41.0960 H   0  0  0  0  0  0  0  0  0  0  0  0  # atno 6969 bound_to 1046
   28.1768    0.0826   41.7

> <Gold.Version>
5.3.0

> <Gold.Goldscore.Internal.Correction>
4.3684

> <Gold.Goldscore.Internal.Vdw>
0.6917

> <Gold.Goldscore.Internal.Vdw.Weighted>
0.6917

> <Gold.Goldscore.External.HBond.Weighted>
7.1318

> <Gold.Goldscore.External.Vdw.Weighted>
71.1262

> <Gold.Goldscore.Internal.HBond.Weighted>
0.0

> <Gold.Goldscore.Hbonds>
donor molecule, donor type, donor heavy atom, donor atom, acceptor molecule, acceptor atom, score
      P1  H   758  6690      AM2     1  0.87
      L1  H     9    34       P1   757  0.78
     AM2  H     1     2       P1   774  0.92
     AM2  H     1     3       P1  1497  0.99

> <Gold.Goldscore.External.Vdw>
51.7282

> <Gold.Goldscore.Internal.Torsion>
-3.561

> <Gold.Goldscore.Internal.Correction.Weighted>
4.3684

> <Gold.Goldscore.SBar>
-5.0

> <Gold.Version>
5.3.0

> <Gold.Id.Protein>
1ZXM|1ZXM_protein|mol2

> <Gold.ASP.Fitness>
37.8511

> <Gold.ASP.ASP>
42.4680

> <Gold.ASP.Map>
-212.3400

> <Gold.ASP.DEClash>
3.9223

> <Gold.ASP.DEInternal>
0.6946

> <Gold.ASP.Internal.Correction>
0.1466

> <Gold.Protein.RotatedTorsions>
[ 8832 2752 2751 2750 ] final  130.64 input   60.00 | X-H torsion
[ 6909  969  968  965 ] final  156.03 input   59.99 | X-H torsion
[ 6913  975  974  971 ] final   97.32 input   60.00 | X-H torsion
[ 6903  962  961  958 ] final   90.02 input   60.00 | X-H torsion
[ 9081 2997 2996 2994 ] final   87.35 input   60.00 | X-H torsion
[ 7408 1497 1496 1493 ] final  106.92 input   60.00 | X-H torsion
[ 7067 1220 1219 1216 ] final   -8.52 input   60.00 | X-H torsion
[ 6928  995  994  992 ] final -110.76 input   60.00 | X-H torsion

> <Gold.Protein.ActiveResidues>
 GLU87   ILE88   VAL90   ASN91   ALA92   ASP94   ASN95   ARG98   ILE118  ASN120 
 LYS123  GLY124  ILE125  ILE141  PHE142  THR147  SER148  SER149  ASN150  TYR151 
 GLY160  GLY161  ARG162  ASN163  GLY164  TYR165  GLY166  ALA167  LYS168  LEU169 
 THR181  THR215  ILE217  ILE317  GLN376  LYS378  ILE33   TYR34   MG903  

> <Gold.Protein.RotatedAtoms>
   40.4877    3.4564   42.0965 H   0  0  0  0  0  0  0  0  0  0  0  0  # atno 6903 bound_to 962 
   42.2759   -2.2847   38.1145 H   0  0  0  0  0  0  0  0  0  0  0  0  # atno 6909 bound_to 969 
   38.1358   -5.7247   40.3558 H   0  0  0  0  0  0  0  0  0  0  0  0  # atno 6913 bound_to 975 
   46.8257    1.5297   40.0789 H   0  0  0  0  0  0  0  0  0  0  0  0  # atno 6928 bound_to 995 
   26.7516   -0.0934   44.0627 H   0  0  0  0  0  0  0  0  0  0  0  0  # atno 7067 bound_to 1220
   27.4042   -1.3556   41.0437 H   0  0  0  0  0  0  0  0  0  0  0  0  # atno 7408 bound_to 1497
   43.3540    0.6501   30.4561 H   0  0  0  0  0  0  0  0  0  0  0  0  # atno 8832 bound_to 2752
   43.6260   -0.9492   30.7961 H   0  0  0  0  0  0  0  0  0  0  0  0  # atno 8833 bound_to 2752
   44.0344   -0.3364   29.3112 H   0  0  0  0  0  0  0  0  0  0  0  0  # atno 8834 bound_to 2752
   34.7099   -5.2193   44.3957 H   0  0  0  0  0  0  0  0  0  0  0  0  # atno 9081 bound_to 2997
   40.9934   -2.4407   39.1040 LP  0  0  0  0  0  0  0  0  0  0  0  0  # atno 11896 bound_to 969 
   42.3805   -3.2391   39.4284 LP  0  0  0  0  0  0  0  0  0  0  0  0  # atno 11897 bound_to 969 
   38.7391   -4.2332   40.1120 LP  0  0  0  0  0  0  0  0  0  0  0  0  # atno 11898 bound_to 975 
   37.3055   -4.4233   40.8705 LP  0  0  0  0  0  0  0  0  0  0  0  0  # atno 11899 bound_to 975 
   41.8872    4.1466   41.6351 LP  0  0  0  0  0  0  0  0  0  0  0  0  # atno 11904 bound_to 962 
   41.0710    4.7308   42.9232 LP  0  0  0  0  0  0  0  0  0  0  0  0  # atno 11905 bound_to 962 
   34.1828   -3.7119   44.0830 LP  0  0  0  0  0  0  0  0  0  0  0  0  # atno 11912 bound_to 2997
   33.8905   -4.3971   45.5361 LP  0  0  0  0  0  0  0  0  0  0  0  0  # atno 11913 bound_to 2997
   26.8437   -0.1897   42.0308 LP  0  0  0  0  0  0  0  0  0  0  0  0  # atno 11922 bound_to 1497
   28.3973   -0.1612   41.5287 LP  0  0  0  0  0  0  0  0  0  0  0  0  # atno 11923 bound_to 1497
   28.2803   -0.1344   44.6188 LP  0  0  0  0  0  0  0  0  0  0  0  0  # atno 11930 bound_to 1220
   27.9924    0.1175   43.0312 LP  0  0  0  0  0  0  0  0  0  0  0  0  # atno 11931 bound_to 1220

$$$$
****|SAP-35|sdf|1|dock8
  -GOLD-   9 823 8533D 1   1.00000     0.00000

 44 47  0  0  0  0  0  0  0  0  1 V2000
   30.3197    0.0409   37.4355 S   0  0  0  0  0  0  0  0  0  0  0  0
   31.8653    0.1000   38.1954 C   0  0  0  0  0  0  0  0  0  0  0  0
   31.9346   -0.7766   39.2801 C   0  0  0  0  0  0  0  0  0  0  0  0
   30.6938   -1.4749   39.4639 C   0  0  0  0  0  0  0  0  0  0  0  0
   29.7397   -1.1232   38.5379 C   0  0  0  0  0  0  0  0  0  0  0  0
   28.7273   -1.4942   38.4560 H   0  0  0  0  0  0  0  0  0  0  0  0
   30.5152   -2.1999   40.2482 H   0  0  0  0  0  0  0  0  0  0  0  0
   33.1468   -0.8448   40.0102 C   0  0  0  0  0  0  0  0  0  0  0  0
   34.2486   -0.0403   39.6651 C   0  0  0  0  0  0  0  0  0  0  0  0
   34.1407    0.8231   38.5736 C   0  0  0  0  0  0  0  0  0  0  0  0
   32.9611    0.9015   37.8269 C   0  0  0  0  0  0  0  0  0  0  0  0
   32.8914    1.5779   36.9795 H   0  0  0  0  0  0  0  0  0  0  0  0
   34.9793    1.4559   38.2870 H   0  0  0  0  0  0  0  0  0  0  0  0
   35.5301   -0.1037   40.4622 C   0  0  0  0  0  0  0  0  0  0  0  0
   36.5939    1.3321   40.1339 S   0  0  0  0  0  0  0  0  0  0  0  0
   37.3212    0.8149   38.6540 C   0  0  0  0  0  0  0  0  0  0  0  0
   38.0959    1.7507   38.0872 N   0  0  0  0  0  0  0  0  0  0  0  0
   38.7383    1.4761   36.9280 C   0  0  0  0  0  0  0  0  0  0  0  0
   39.4855    2.3181   36.4418 O   0  0  0  0  0  0  0  0  0  0  0  0
   38.5128    0.2667   36.3520 N   0  0  0  0  0  0  0  0  0  0  0  0
   37.7411   -0.5652   36.9537 C   0  0  0  0  0  0  0  0  0  0  0  0
   37.4398   -2.1056   36.1824 S   0  0  0  0  0  0  0  0  0  0  0  0
   35.7168   -2.2785   36.7147 C   0  0  0  0  0  0  0  0  0  0  0  0
   35.5589   -3.3538   37.7605 C   0  0  0  0  0  0  0  0  0  0  0  0
   35.1697   -3.0192   39.0645 C   0  0  0  0  0  0  0  0  0  0  0  0
   35.0256   -4.0136   40.0252 C   0  0  0  0  0  0  0  0  0  0  0  0
   34.6662   -3.6786   41.2710 F   0  0  0  0  0  0  0  0  0  0  0  0
   35.2544   -5.3486   39.7174 C   0  0  0  0  0  0  0  0  0  0  0  0
   35.6299   -5.7125   38.4164 C   0  0  0  0  0  0  0  0  0  0  0  0
   35.7808   -4.7056   37.4451 C   0  0  0  0  0  0  0  0  0  0  0  0
   36.0711   -4.9794   36.4300 H   0  0  0  0  0  0  0  0  0  0  0  0
   35.8856   -7.1621   38.0875 C   0  0  0  0  0  0  0  0  0  0  0  0
   35.1390   -7.6024   37.0376 F   0  0  0  0  0  0  0  0  0  0  0  0
   37.1816   -7.4234   37.7596 F   0  0  0  0  0  0  0  0  0  0  0  0
   35.5908   -7.9873   39.1294 F   0  0  0  0  0  0  0  0  0  0  0  0
   35.1347   -6.0985   40.4959 H   0  0  0  0  0  0  0  0  0  0  0  0
   34.9755   -1.9870   39.3453 H   0  0  0  0  0  0  0  0  0  0  0  0
   35.0810   -2.5164   35.8536 H   0  0  0  0  0  0  0  0  0  0  0  0
   35.3620   -1.3189   37.1089 H   0  0  0  0  0  0  0  0  0  0  0  0
   37.1171   -0.3399   38.1419 N   0  0  0  0  0  0  0  0  0  0  0  0
   38.2451    2.6498   38.5161 H   0  0  0  0  0  0  0  0  0  0  0  0
   35.2896   -0.1419   41.5311 H   0  0  0  0  0  0  0  0  0  0  0  0
   36.0706   -1.0258   40.2216 H   0  0  0  0  0  0  0  0  0  0  0  0
   33.2111   -1.5219   40.8592 H   0  0  0  0  0  0  0  0  0  0  0  0
  1  2  1  0  0  0  0
  1  5  1  0  0  0  0
  2  3  2  0  0  0  0
  2 11  1  0  0  0  0
  3  4  1  0  0  0  0
  3  8  1  0  0  0  0
  4  5  2  0  0  0  0
  4  7  1  0  0  0  0
  5  6  1  0  0  0  0
  8  9  2  0  0  0  0
  8 44  1  0  0  0  0
  9 10  1  0  0  0  0
  9 14  1  0  0  0  0
 10 11  2  0  0  0  0
 10 13  1  0  0  0  0
 11 12  1  0  0  0  0
 14 15  1  0  0  0  0
 14 42  1  0  0  0  0
 14 43  1  0  0  0  0
 15 16  1  0  0  0  0
 16 17  1  0  0  0  0
 16 40  2  0  0  0  0
 17 18  1  0  0  0  0
 17 41  1  0  0  0  0
 18 19  2  0  0  0  0
 18 20  1  0  0  0  0
 20 21  2  0  0  0  0
 21 22  1  0  0  0  0
 21 40  1  0  0  0  0
 22 23  1  0  0  0  0
 23 24  1  0  0  0  0
 23 38  1  0  0  0  0
 23 39  1  0  0  0  0
 24 25  2  0  0  0  0
 24 30  1  0  0  0  0
 25 26  1  0  0  0  0
 25 37  1  0  0  0  0
 26 27  1  0  0  0  0
 26 28  2  0  0  0  0
 28 29  1  0  0  0  0
 28 36  1  0  0  0  0
 29 30  2  0  0  0  0
 29 32  1  0  0  0  0
 30 31  1  0  0  0  0
 32 33  1  0  0  0  0
 32 34  1  0  0  0  0
 32 35  1  0  0  0  0
M  END
> <Gold.Goldscore.Fitness>
66.0202

> <Gold.Goldscore.External.HBond>
7.1318

> <Gold.Protein.ActiveResidues>
 GLU87   ILE88   VAL90   ASN91   ALA92   ASP94   ASN95   ARG98   ILE118  ASN120 
 LYS123  GLY124  ILE125  ILE141  PHE142  THR147  SER148  SER149  ASN150  LYS157 
 THR159  GLY160  GLY161  ARG162  ASN163  GLY164  TYR165  GLY166  ALA167  LYS168 
 THR215  ILE217  GLN376  ILE33   TYR34   MG903  

> <Gold.Protein.RotatedWaterAtoms>
   32.4470    2.9410   36.3270 O.3 0  0  0  0  0  0  0  0  0  0  0  0  # atno 1    bound_to 2    3    AM1 OFF
   31.8359    3.0941   37.0946 H   0  0  0  0  0  0  0  0  0  0  0  0  # atno 2    bound_to 1    AM1 OFF
   31.9233    2.6242   35.5451 H   0  0  0  0  0  0  0  0  0  0  0  0  # atno 3    bound_to 1    AM1 OFF
   33.1269    2.2507   36.5746 LP  0  0  0  0  0  0  0  0  0  0  0  0  # atno 4    bound_to 1    AM1 OFF
   32.9099    3.7962   36.0938 LP  0  0  0  0  0  0  0  0  0  0  0  0  # atno 5    boun

> <Gold.Goldscore.Internal.HBond>
0.0

> <Gold.Goldscore.Internal.Torsion.Weighted>
-3.561

> <Gold.Protein.RotatedTorsions>
[ 7484 1497 1496 1493 ] final -108.15 input   60.00 | X-H torsion
[ 9179 2997 2996 2994 ] final  -52.84 input   60.00 | X-H torsion
[ 6913  975  974  971 ] final  -82.68 input   60.00 | X-H torsion
[ 6967 1046 1045 1044 ] final  -95.30 input   60.00 | X-H torsion
[ 6909  969  968  965 ] final   98.88 input   59.99 | X-H torsion

> <Gold.Goldscore.Constraint.Score>
0.0

> <Gold.Id.Protein>
1ZXM|1ZXM_protein|mol2

> <Gold.Protein.RotatedAtoms>
   41.4288   -2.0685   38.3092 H   0  0  0  0  0  0  0  0  0  0  0  0  # atno 6909 bound_to 969 
   37.9862   -3.8673   40.5387 H   0  0  0  0  0  0  0  0  0  0  0  0  # atno 6913 bound_to 975 
   40.2006   -9.0468   40.8017 H   0  0  0  0  0  0  0  0  0  0  0  0  # atno 6967 bound_to 1046
   39.1096   -8.3546   39.7634 H   0  0  0  0  0  0  0  0  0  0  0  0  # atno 6968 bound_to 1046
   38.5752   -9.1830   41.0960 H   0  0  0  0  0  0  0  0  0  0  0  0  # atno 6969 bound_to 1046
   28.1768    0.0826   41.7

> <Gold.Version>
5.3.0

> <Gold.Goldscore.Internal.Correction>
4.3684

> <Gold.Goldscore.Internal.Vdw>
0.6917

> <Gold.Goldscore.Internal.Vdw.Weighted>
0.6917

> <Gold.Goldscore.External.HBond.Weighted>
7.1318

> <Gold.Goldscore.External.Vdw.Weighted>
71.1262

> <Gold.Goldscore.Internal.HBond.Weighted>
0.0

> <Gold.Goldscore.Hbonds>
donor molecule, donor type, donor heavy atom, donor atom, acceptor molecule, acceptor atom, score
      P1  H   758  6690      AM2     1  0.87
      L1  H     9    34       P1   757  0.78
     AM2  H     1     2       P1   774  0.92
     AM2  H     1     3       P1  1497  0.99

> <Gold.Goldscore.External.Vdw>
51.7282

> <Gold.Goldscore.Internal.Torsion>
-3.561

> <Gold.Goldscore.Internal.Correction.Weighted>
4.3684

> <Gold.Goldscore.SBar>
-5.0

> <Gold.Version>
5.3.0

> <Gold.Id.Protein>
1ZXM|1ZXM_protein|mol2

> <Gold.ASP.Fitness>
37.2079

> <Gold.ASP.ASP>
38.9420

> <Gold.ASP.Map>
-194.7100

> <Gold.ASP.DEClash>
0.6821

> <Gold.ASP.DEInternal>
1.0520

> <Gold.ASP.Internal.Correction>
0.0967

> <Gold.Protein.RotatedTorsions>
[ 8832 2752 2751 2750 ] final  -33.60 input   60.00 | X-H torsion
[ 6909  969  968  965 ] final  119.70 input   59.99 | X-H torsion
[ 6913  975  974  971 ] final   43.94 input   60.00 | X-H torsion
[ 6903  962  961  958 ] final -141.96 input   60.00 | X-H torsion
[ 9081 2997 2996 2994 ] final   13.81 input   60.00 | X-H torsion
[ 7408 1497 1496 1493 ] final -132.32 input   60.00 | X-H torsion
[ 7067 1220 1219 1216 ] final -151.24 input   60.00 | X-H torsion
[ 6928  995  994  992 ] final -178.83 input   60.00 | X-H torsion

> <Gold.Protein.ActiveResidues>
 GLU87   ILE88   VAL90   ASN91   ALA92   ASP94   ASN95   ARG98   ILE118  ASN120 
 LYS123  GLY124  ILE125  ILE141  PHE142  THR147  SER148  SER149  ASN150  TYR151 
 GLY160  GLY161  ARG162  ASN163  GLY164  TYR165  GLY166  ALA167  LYS168  LEU169 
 THR181  THR215  ILE217  ILE317  GLN376  LYS378  ILE33   TYR34   MG903  

> <Gold.Protein.RotatedAtoms>
   41.1858    4.7745   42.8760 H   0  0  0  0  0  0  0  0  0  0  0  0  # atno 6903 bound_to 962 
   41.7287   -2.0850   38.1534 H   0  0  0  0  0  0  0  0  0  0  0  0  # atno 6909 bound_to 969 
   38.7654   -5.2624   40.0437 H   0  0  0  0  0  0  0  0  0  0  0  0  # atno 6913 bound_to 975 
   45.8451    1.5997   40.4423 H   0  0  0  0  0  0  0  0  0  0  0  0  # atno 6928 bound_to 995 
   28.5052   -0.0768   44.3305 H   0  0  0  0  0  0  0  0  0  0  0  0  # atno 7067 bound_to 1220
   28.3863   -0.1540   41.5344 H   0  0  0  0  0  0  0  0  0  0  0  0  # atno 7408 bound_to 1497
   44.0411   -0.9453   29.6967 H   0  0  0  0  0  0  0  0  0  0  0  0  # atno 8832 bound_to 2752
   43.6084    0.6525   29.7819 H   0  0  0  0  0  0  0  0  0  0  0  0  # atno 8833 bound_to 2752
   43.3649   -0.3427   31.0847 H   0  0  0  0  0  0  0  0  0  0  0  0  # atno 8834 bound_to 2752
   34.5507   -4.2870   43.7944 H   0  0  0  0  0  0  0  0  0  0  0  0  # atno 9081 bound_to 2997
   41.2017   -2.8090   39.5121 LP  0  0  0  0  0  0  0  0  0  0  0  0  # atno 11896 bound_to 969 
   42.7233   -3.0718   38.9811 LP  0  0  0  0  0  0  0  0  0  0  0  0  # atno 11897 bound_to 969 
   38.0804   -3.8542   40.4862 LP  0  0  0  0  0  0  0  0  0  0  0  0  # atno 11898 bound_to 975 
   37.3301   -5.2679   40.8106 LP  0  0  0  0  0  0  0  0  0  0  0  0  # atno 11899 bound_to 975 
   40.4226    3.5067   42.1992 LP  0  0  0  0  0  0  0  0  0  0  0  0  # atno 11904 bound_to 962 
   41.8325    4.0433   41.5740 LP  0  0  0  0  0  0  0  0  0  0  0  0  # atno 11905 bound_to 962 
   33.7848   -3.7784   45.1371 LP  0  0  0  0  0  0  0  0  0  0  0  0  # atno 11912 bound_to 2997
   34.4488   -5.2695   45.0876 LP  0  0  0  0  0  0  0  0  0  0  0  0  # atno 11913 bound_to 2997
   27.4157   -1.3621   41.0383 LP  0  0  0  0  0  0  0  0  0  0  0  0  # atno 11922 bound_to 1497
   26.8361   -0.1989   42.0270 LP  0  0  0  0  0  0  0  0  0  0  0  0  # atno 11923 bound_to 1497
   27.6252    0.1140   42.9752 LP  0  0  0  0  0  0  0  0  0  0  0  0  # atno 11930 bound_to 1220
   26.8813   -0.1477   44.4051 LP  0  0  0  0  0  0  0  0  0  0  0  0  # atno 11931 bound_to 1220

$$$$
****|SAP-35|sdf|1|dock9
  -GOLD-   9 823 8543D 1   1.00000     0.00000

 44 47  0  0  0  0  0  0  0  0  1 V2000
   31.5939    2.0271   36.5918 S   0  0  0  0  0  0  0  0  0  0  0  0
   32.3021    0.9254   37.7120 C   0  0  0  0  0  0  0  0  0  0  0  0
   31.4151   -0.0984   38.0510 C   0  0  0  0  0  0  0  0  0  0  0  0
   30.1572    0.0597   37.3776 C   0  0  0  0  0  0  0  0  0  0  0  0
   30.1215    1.1678   36.5638 C   0  0  0  0  0  0  0  0  0  0  0  0
   29.2995    1.5154   35.9533 H   0  0  0  0  0  0  0  0  0  0  0  0
   29.3169   -0.6132   37.4945 H   0  0  0  0  0  0  0  0  0  0  0  0
   31.8525   -1.0885   38.9652 C   0  0  0  0  0  0  0  0  0  0  0  0
   33.1398   -1.0361   39.5315 C   0  0  0  0  0  0  0  0  0  0  0  0
   33.9977    0.0028   39.1670 C   0  0  0  0  0  0  0  0  0  0  0  0
   33.5975    0.9862   38.2570 C   0  0  0  0  0  0  0  0  0  0  0  0
   34.2760    1.7890   37.9822 H   0  0  0  0  0  0  0  0  0  0  0  0
   34.9985    0.0652   39.5916 H   0  0  0  0  0  0  0  0  0  0  0  0
   33.5903   -2.0840   40.5218 C   0  0  0  0  0  0  0  0  0  0  0  0
   33.1553   -3.7587   39.9679 S   0  0  0  0  0  0  0  0  0  0  0  0
   34.4552   -4.0401   38.8645 C   0  0  0  0  0  0  0  0  0  0  0  0
   34.9246   -5.2951   38.9053 N   0  0  0  0  0  0  0  0  0  0  0  0
   35.9368   -5.6586   38.0836 C   0  0  0  0  0  0  0  0  0  0  0  0
   36.3271   -6.8210   38.0898 O   0  0  0  0  0  0  0  0  0  0  0  0
   36.4799   -4.7005   37.2883 N   0  0  0  0  0  0  0  0  0  0  0  0
   35.9810   -3.5175   37.3247 C   0  0  0  0  0  0  0  0  0  0  0  0
   36.7122   -2.2906   36.3155 S   0  0  0  0  0  0  0  0  0  0  0  0
   38.2281   -2.0894   37.2868 C   0  0  0  0  0  0  0  0  0  0  0  0
   38.0630   -1.0585   38.3754 C   0  0  0  0  0  0  0  0  0  0  0  0
   38.2965   -1.4012   39.7140 C   0  0  0  0  0  0  0  0  0  0  0  0
   38.1431   -0.4478   40.7141 C   0  0  0  0  0  0  0  0  0  0  0  0
   38.3563   -0.7921   41.9904 F   0  0  0  0  0  0  0  0  0  0  0  0
   37.7656    0.8547   40.4132 C   0  0  0  0  0  0  0  0  0  0  0  0
   37.5406    1.2281   39.0806 C   0  0  0  0  0  0  0  0  0  0  0  0
   37.6910    0.2620   38.0686 C   0  0  0  0  0  0  0  0  0  0  0  0
   37.5196    0.5437   37.0290 H   0  0  0  0  0  0  0  0  0  0  0  0
   37.1229    2.6410   38.7580 C   0  0  0  0  0  0  0  0  0  0  0  0
   35.9582    2.9967   39.3667 F   0  0  0  0  0  0  0  0  0  0  0  0
   38.0400    3.5763   39.1314 F   0  0  0  0  0  0  0  0  0  0  0  0
   36.9213    2.8277   37.4246 F   0  0  0  0  0  0  0  0  0  0  0  0
   37.6524    1.5724   41.2224 H   0  0  0  0  0  0  0  0  0  0  0  0
   38.5988   -2.4079   39.9916 H   0  0  0  0  0  0  0  0  0  0  0  0
   39.0560   -1.7930   36.6317 H   0  0  0  0  0  0  0  0  0  0  0  0
   38.5073   -3.0546   37.7255 H   0  0  0  0  0  0  0  0  0  0  0  0
   34.9345   -3.1298   38.1034 N   0  0  0  0  0  0  0  0  0  0  0  0
   34.5235   -5.9943   39.5092 H   0  0  0  0  0  0  0  0  0  0  0  0
   34.6765   -2.0144   40.6527 H   0  0  0  0  0  0  0  0  0  0  0  0
   33.1359   -1.8892   41.4994 H   0  0  0  0  0  0  0  0  0  0  0  0
   31.1689   -1.8891   39.2391 H   0  0  0  0  0  0  0  0  0  0  0  0
  1  2  1  0  0  0  0
  1  5  1  0  0  0  0
  2  3  2  0  0  0  0
  2 11  1  0  0  0  0
  3  4  1  0  0  0  0
  3  8  1  0  0  0  0
  4  5  2  0  0  0  0
  4  7  1  0  0  0  0
  5  6  1  0  0  0  0
  8  9  2  0  0  0  0
  8 44  1  0  0  0  0
  9 10  1  0  0  0  0
  9 14  1  0  0  0  0
 10 11  2  0  0  0  0
 10 13  1  0  0  0  0
 11 12  1  0  0  0  0
 14 15  1  0  0  0  0
 14 42  1  0  0  0  0
 14 43  1  0  0  0  0
 15 16  1  0  0  0  0
 16 17  1  0  0  0  0
 16 40  2  0  0  0  0
 17 18  1  0  0  0  0
 17 41  1  0  0  0  0
 18 19  2  0  0  0  0
 18 20  1  0  0  0  0
 20 21  2  0  0  0  0
 21 22  1  0  0  0  0
 21 40  1  0  0  0  0
 22 23  1  0  0  0  0
 23 24  1  0  0  0  0
 23 38  1  0  0  0  0
 23 39  1  0  0  0  0
 24 25  2  0  0  0  0
 24 30  1  0  0  0  0
 25 26  1  0  0  0  0
 25 37  1  0  0  0  0
 26 27  1  0  0  0  0
 26 28  2  0  0  0  0
 28 29  1  0  0  0  0
 28 36  1  0  0  0  0
 29 30  2  0  0  0  0
 29 32  1  0  0  0  0
 30 31  1  0  0  0  0
 32 33  1  0  0  0  0
 32 34  1  0  0  0  0
 32 35  1  0  0  0  0
M  END
> <Gold.Goldscore.Fitness>
66.0202

> <Gold.Goldscore.External.HBond>
7.1318

> <Gold.Protein.ActiveResidues>
 GLU87   ILE88   VAL90   ASN91   ALA92   ASP94   ASN95   ARG98   ILE118  ASN120 
 LYS123  GLY124  ILE125  ILE141  PHE142  THR147  SER148  SER149  ASN150  LYS157 
 THR159  GLY160  GLY161  ARG162  ASN163  GLY164  TYR165  GLY166  ALA167  LYS168 
 THR215  ILE217  GLN376  ILE33   TYR34   MG903  

> <Gold.Protein.RotatedWaterAtoms>
   32.4470    2.9410   36.3270 O.3 0  0  0  0  0  0  0  0  0  0  0  0  # atno 1    bound_to 2    3    AM1 OFF
   31.8359    3.0941   37.0946 H   0  0  0  0  0  0  0  0  0  0  0  0  # atno 2    bound_to 1    AM1 OFF
   31.9233    2.6242   35.5451 H   0  0  0  0  0  0  0  0  0  0  0  0  # atno 3    bound_to 1    AM1 OFF
   33.1269    2.2507   36.5746 LP  0  0  0  0  0  0  0  0  0  0  0  0  # atno 4    bound_to 1    AM1 OFF
   32.9099    3.7962   36.0938 LP  0  0  0  0  0  0  0  0  0  0  0  0  # atno 5    boun

> <Gold.Goldscore.Internal.HBond>
0.0

> <Gold.Goldscore.Internal.Torsion.Weighted>
-3.561

> <Gold.Protein.RotatedTorsions>
[ 7484 1497 1496 1493 ] final -108.15 input   60.00 | X-H torsion
[ 9179 2997 2996 2994 ] final  -52.84 input   60.00 | X-H torsion
[ 6913  975  974  971 ] final  -82.68 input   60.00 | X-H torsion
[ 6967 1046 1045 1044 ] final  -95.30 input   60.00 | X-H torsion
[ 6909  969  968  965 ] final   98.88 input   59.99 | X-H torsion

> <Gold.Goldscore.Constraint.Score>
0.0

> <Gold.Id.Protein>
1ZXM|1ZXM_protein|mol2

> <Gold.Protein.RotatedAtoms>
   41.4288   -2.0685   38.3092 H   0  0  0  0  0  0  0  0  0  0  0  0  # atno 6909 bound_to 969 
   37.9862   -3.8673   40.5387 H   0  0  0  0  0  0  0  0  0  0  0  0  # atno 6913 bound_to 975 
   40.2006   -9.0468   40.8017 H   0  0  0  0  0  0  0  0  0  0  0  0  # atno 6967 bound_to 1046
   39.1096   -8.3546   39.7634 H   0  0  0  0  0  0  0  0  0  0  0  0  # atno 6968 bound_to 1046
   38.5752   -9.1830   41.0960 H   0  0  0  0  0  0  0  0  0  0  0  0  # atno 6969 bound_to 1046
   28.1768    0.0826   41.7

> <Gold.Version>
5.3.0

> <Gold.Goldscore.Internal.Correction>
4.3684

> <Gold.Goldscore.Internal.Vdw>
0.6917

> <Gold.Goldscore.Internal.Vdw.Weighted>
0.6917

> <Gold.Goldscore.External.HBond.Weighted>
7.1318

> <Gold.Goldscore.External.Vdw.Weighted>
71.1262

> <Gold.Goldscore.Internal.HBond.Weighted>
0.0

> <Gold.Goldscore.Hbonds>
donor molecule, donor type, donor heavy atom, donor atom, acceptor molecule, acceptor atom, score
      P1  H   758  6690      AM2     1  0.87
      L1  H     9    34       P1   757  0.78
     AM2  H     1     2       P1   774  0.92
     AM2  H     1     3       P1  1497  0.99

> <Gold.Goldscore.External.Vdw>
51.7282

> <Gold.Goldscore.Internal.Torsion>
-3.561

> <Gold.Goldscore.Internal.Correction.Weighted>
4.3684

> <Gold.Goldscore.SBar>
-5.0

> <Gold.Version>
5.3.0

> <Gold.Id.Protein>
1ZXM|1ZXM_protein|mol2

> <Gold.ASP.Fitness>
36.5478

> <Gold.ASP.ASP>
39.4240

> <Gold.ASP.Map>
-197.1200

> <Gold.ASP.DEClash>
2.0460

> <Gold.ASP.DEInternal>
0.8302

> <Gold.ASP.Internal.Correction>
0.0967

> <Gold.Protein.RotatedTorsions>
[ 8832 2752 2751 2750 ] final  171.62 input   60.00 | X-H torsion
[ 6909  969  968  965 ] final -141.10 input   59.99 | X-H torsion
[ 6913  975  974  971 ] final   51.63 input   60.00 | X-H torsion
[ 6903  962  961  958 ] final  102.29 input   60.00 | X-H torsion
[ 9081 2997 2996 2994 ] final  137.40 input   60.00 | X-H torsion
[ 7408 1497 1496 1493 ] final -162.34 input   60.00 | X-H torsion
[ 7067 1220 1219 1216 ] final  -54.14 input   60.00 | X-H torsion
[ 6928  995  994  992 ] final   15.16 input   60.00 | X-H torsion

> <Gold.Protein.ActiveResidues>
 GLU87   ILE88   VAL90   ASN91   ALA92   ASP94   ASN95   ARG98   ILE118  ASN120 
 LYS123  GLY124  ILE125  ILE141  PHE142  THR147  SER148  SER149  ASN150  TYR151 
 GLY160  GLY161  ARG162  ASN163  GLY164  TYR165  GLY166  ALA167  LYS168  LEU169 
 THR181  THR215  ILE217  ILE317  GLN376  LYS378  ILE33   TYR34   MG903  

> <Gold.Protein.RotatedAtoms>
   40.4033    3.5424   42.2562 H   0  0  0  0  0  0  0  0  0  0  0  0  # atno 6903 bound_to 962 
   42.7708   -2.8922   38.6971 H   0  0  0  0  0  0  0  0  0  0  0  0  # atno 6909 bound_to 969 
   38.7014   -5.3667   40.0722 H   0  0  0  0  0  0  0  0  0  0  0  0  # atno 6913 bound_to 975 
   46.0529    1.1246   38.6577 H   0  0  0  0  0  0  0  0  0  0  0  0  # atno 6928 bound_to 995 
   27.1464   -0.1792   44.6656 H   0  0  0  0  0  0  0  0  0  0  0  0  # atno 7067 bound_to 1220
   28.4401   -0.5434   41.2505 H   0  0  0  0  0  0  0  0  0  0  0  0  # atno 7408 bound_to 1497
   43.2772    0.2069   30.9526 H   0  0  0  0  0  0  0  0  0  0  0  0  # atno 8832 bound_to 2752
   43.8948   -1.1420   30.2135 H   0  0  0  0  0  0  0  0  0  0  0  0  # atno 8833 bound_to 2752
   43.8425    0.2997   29.3973 H   0  0  0  0  0  0  0  0  0  0  0  0  # atno 8834 bound_to 2752
   34.4217   -5.2430   45.1331 H   0  0  0  0  0  0  0  0  0  0  0  0  # atno 9081 bound_to 2997
   41.4251   -2.0662   38.3037 LP  0  0  0  0  0  0  0  0  0  0  0  0  # atno 11896 bound_to 969 
   41.4504   -3.0017   39.6419 LP  0  0  0  0  0  0  0  0  0  0  0  0  # atno 11897 bound_to 969 
   38.1915   -3.8625   40.4262 LP  0  0  0  0  0  0  0  0  0  0  0  0  # atno 11898 bound_to 975 
   37.2834   -5.1545   40.8419 LP  0  0  0  0  0  0  0  0  0  0  0  0  # atno 11899 bound_to 975 
   41.7980    3.9890   41.5467 LP  0  0  0  0  0  0  0  0  0  0  0  0  # atno 11904 bound_to 962 
   41.2452    4.8017   42.8507 LP  0  0  0  0  0  0  0  0  0  0  0  0  # atno 11905 bound_to 962 
   34.5741   -4.3409   43.7873 LP  0  0  0  0  0  0  0  0  0  0  0  0  # atno 11912 bound_to 2997
   33.7895   -3.7442   45.0892 LP  0  0  0  0  0  0  0  0  0  0  0  0  # atno 11913 bound_to 2997
   26.9838   -1.2695   41.2466 LP  0  0  0  0  0  0  0  0  0  0  0  0  # atno 11922 bound_to 1497
   27.2139    0.1006   42.1047 LP  0  0  0  0  0  0  0  0  0  0  0  0  # atno 11923 bound_to 1497
   28.6123   -0.0172   43.9781 LP  0  0  0  0  0  0  0  0  0  0  0  0  # atno 11930 bound_to 1220
   27.2628    0.0867   43.0645 LP  0  0  0  0  0  0  0  0  0  0  0  0  # atno 11931 bound_to 1220

$$$$
****|SAP-35|sdf|1|dock7
  -GOLD-   9 823 8533D 1   1.00000     0.00000

 44 47  0  0  0  0  0  0  0  0  1 V2000
   29.4463    0.9105   36.1423 S   0  0  0  0  0  0  0  0  0  0  0  0
   30.7151    0.5151   37.2396 C   0  0  0  0  0  0  0  0  0  0  0  0
   31.7508    1.4497   37.1804 C   0  0  0  0  0  0  0  0  0  0  0  0
   31.4719    2.4739   36.2139 C   0  0  0  0  0  0  0  0  0  0  0  0
   30.2631    2.2983   35.5820 C   0  0  0  0  0  0  0  0  0  0  0  0
   29.8195    2.9192   34.8158 H   0  0  0  0  0  0  0  0  0  0  0  0
   32.1378    3.2989   35.9938 H   0  0  0  0  0  0  0  0  0  0  0  0
   32.8707    1.2633   38.0279 C   0  0  0  0  0  0  0  0  0  0  0  0
   32.9489    0.1581   38.8956 C   0  0  0  0  0  0  0  0  0  0  0  0
   31.8929   -0.7541   38.9264 C   0  0  0  0  0  0  0  0  0  0  0  0
   30.7693   -0.5881   38.1109 C   0  0  0  0  0  0  0  0  0  0  0  0
   29.9545   -1.3059   38.1456 H   0  0  0  0  0  0  0  0  0  0  0  0
   31.9300   -1.6173   39.5891 H   0  0  0  0  0  0  0  0  0  0  0  0
   34.1564   -0.0445   39.7802 C   0  0  0  0  0  0  0  0  0  0  0  0
   33.7564   -1.0532   41.2373 S   0  0  0  0  0  0  0  0  0  0  0  0
   34.4538   -2.5554   40.7436 C   0  0  0  0  0  0  0  0  0  0  0  0
   34.5667   -3.4425   41.7423 N   0  0  0  0  0  0  0  0  0  0  0  0
   35.0860   -4.6676   41.4943 C   0  0  0  0  0  0  0  0  0  0  0  0
   35.1392   -5.4916   42.4008 O   0  0  0  0  0  0  0  0  0  0  0  0
   35.5341   -4.9210   40.2372 N   0  0  0  0  0  0  0  0  0  0  0  0
   35.4040   -4.0077   39.3436 C   0  0  0  0  0  0  0  0  0  0  0  0
   36.0131   -4.3417   37.7387 S   0  0  0  0  0  0  0  0  0  0  0  0
   35.5585   -2.7507   37.0014 C   0  0  0  0  0  0  0  0  0  0  0  0
   36.6425   -1.7180   37.1853 C   0  0  0  0  0  0  0  0  0  0  0  0
   37.8983   -1.8987   36.5905 C   0  0  0  0  0  0  0  0  0  0  0  0
   38.8945   -0.9445   36.7628 C   0  0  0  0  0  0  0  0  0  0  0  0
   40.0945   -1.1361   36.2001 F   0  0  0  0  0  0  0  0  0  0  0  0
   38.6692    0.2017   37.5144 C   0  0  0  0  0  0  0  0  0  0  0  0
   37.4168    0.4147   38.1077 C   0  0  0  0  0  0  0  0  0  0  0  0
   36.4099   -0.5536   37.9376 C   0  0  0  0  0  0  0  0  0  0  0  0
   35.4320   -0.3957   38.3942 H   0  0  0  0  0  0  0  0  0  0  0  0
   37.1779    1.6563   38.9300 C   0  0  0  0  0  0  0  0  0  0  0  0
   36.9947    1.3843   40.2513 F   0  0  0  0  0  0  0  0  0  0  0  0
   38.2033    2.5510   38.8717 F   0  0  0  0  0  0  0  0  0  0  0  0
   36.0676    2.3346   38.5294 F   0  0  0  0  0  0  0  0  0  0  0  0
   39.4734    0.9246   37.6298 H   0  0  0  0  0  0  0  0  0  0  0  0
   38.1140   -2.7790   35.9900 H   0  0  0  0  0  0  0  0  0  0  0  0
   34.6287   -2.3818   37.4507 H   0  0  0  0  0  0  0  0  0  0  0  0
   35.3544   -2.8919   35.9335 H   0  0  0  0  0  0  0  0  0  0  0  0
   34.8446   -2.7839   39.5467 N   0  0  0  0  0  0  0  0  0  0  0  0
   34.2438   -3.2390   42.6744 H   0  0  0  0  0  0  0  0  0  0  0  0
   34.9487   -0.5359   39.2034 H   0  0  0  0  0  0  0  0  0  0  0  0
   34.5480    0.9272   40.1004 H   0  0  0  0  0  0  0  0  0  0  0  0
   33.6851    1.9835   37.9880 H   0  0  0  0  0  0  0  0  0  0  0  0
  1  2  1  0  0  0  0
  1  5  1  0  0  0  0
  2  3  2  0  0  0  0
  2 11  1  0  0  0  0
  3  4  1  0  0  0  0
  3  8  1  0  0  0  0
  4  5  2  0  0  0  0
  4  7  1  0  0  0  0
  5  6  1  0  0  0  0
  8  9  2  0  0  0  0
  8 44  1  0  0  0  0
  9 10  1  0  0  0  0
  9 14  1  0  0  0  0
 10 11  2  0  0  0  0
 10 13  1  0  0  0  0
 11 12  1  0  0  0  0
 14 15  1  0  0  0  0
 14 42  1  0  0  0  0
 14 43  1  0  0  0  0
 15 16  1  0  0  0  0
 16 17  1  0  0  0  0
 16 40  2  0  0  0  0
 17 18  1  0  0  0  0
 17 41  1  0  0  0  0
 18 19  2  0  0  0  0
 18 20  1  0  0  0  0
 20 21  2  0  0  0  0
 21 22  1  0  0  0  0
 21 40  1  0  0  0  0
 22 23  1  0  0  0  0
 23 24  1  0  0  0  0
 23 38  1  0  0  0  0
 23 39  1  0  0  0  0
 24 25  2  0  0  0  0
 24 30  1  0  0  0  0
 25 26  1  0  0  0  0
 25 37  1  0  0  0  0
 26 27  1  0  0  0  0
 26 28  2  0  0  0  0
 28 29  1  0  0  0  0
 28 36  1  0  0  0  0
 29 30  2  0  0  0  0
 29 32  1  0  0  0  0
 30 31  1  0  0  0  0
 32 33  1  0  0  0  0
 32 34  1  0  0  0  0
 32 35  1  0  0  0  0
M  END
> <Gold.Goldscore.Fitness>
66.0202

> <Gold.Goldscore.External.HBond>
7.1318

> <Gold.Protein.ActiveResidues>
 GLU87   ILE88   VAL90   ASN91   ALA92   ASP94   ASN95   ARG98   ILE118  ASN120 
 LYS123  GLY124  ILE125  ILE141  PHE142  THR147  SER148  SER149  ASN150  LYS157 
 THR159  GLY160  GLY161  ARG162  ASN163  GLY164  TYR165  GLY166  ALA167  LYS168 
 THR215  ILE217  GLN376  ILE33   TYR34   MG903  

> <Gold.Protein.RotatedWaterAtoms>
   32.4470    2.9410   36.3270 O.3 0  0  0  0  0  0  0  0  0  0  0  0  # atno 1    bound_to 2    3    AM1 OFF
   31.8359    3.0941   37.0946 H   0  0  0  0  0  0  0  0  0  0  0  0  # atno 2    bound_to 1    AM1 OFF
   31.9233    2.6242   35.5451 H   0  0  0  0  0  0  0  0  0  0  0  0  # atno 3    bound_to 1    AM1 OFF
   33.1269    2.2507   36.5746 LP  0  0  0  0  0  0  0  0  0  0  0  0  # atno 4    bound_to 1    AM1 OFF
   32.9099    3.7962   36.0938 LP  0  0  0  0  0  0  0  0  0  0  0  0  # atno 5    boun

> <Gold.Goldscore.Internal.HBond>
0.0

> <Gold.Goldscore.Internal.Torsion.Weighted>
-3.561

> <Gold.Protein.RotatedTorsions>
[ 7484 1497 1496 1493 ] final -108.15 input   60.00 | X-H torsion
[ 9179 2997 2996 2994 ] final  -52.84 input   60.00 | X-H torsion
[ 6913  975  974  971 ] final  -82.68 input   60.00 | X-H torsion
[ 6967 1046 1045 1044 ] final  -95.30 input   60.00 | X-H torsion
[ 6909  969  968  965 ] final   98.88 input   59.99 | X-H torsion

> <Gold.Goldscore.Constraint.Score>
0.0

> <Gold.Id.Protein>
1ZXM|1ZXM_protein|mol2

> <Gold.Protein.RotatedAtoms>
   41.4288   -2.0685   38.3092 H   0  0  0  0  0  0  0  0  0  0  0  0  # atno 6909 bound_to 969 
   37.9862   -3.8673   40.5387 H   0  0  0  0  0  0  0  0  0  0  0  0  # atno 6913 bound_to 975 
   40.2006   -9.0468   40.8017 H   0  0  0  0  0  0  0  0  0  0  0  0  # atno 6967 bound_to 1046
   39.1096   -8.3546   39.7634 H   0  0  0  0  0  0  0  0  0  0  0  0  # atno 6968 bound_to 1046
   38.5752   -9.1830   41.0960 H   0  0  0  0  0  0  0  0  0  0  0  0  # atno 6969 bound_to 1046
   28.1768    0.0826   41.7

> <Gold.Version>
5.3.0

> <Gold.Goldscore.Internal.Correction>
4.3684

> <Gold.Goldscore.Internal.Vdw>
0.6917

> <Gold.Goldscore.Internal.Vdw.Weighted>
0.6917

> <Gold.Goldscore.External.HBond.Weighted>
7.1318

> <Gold.Goldscore.External.Vdw.Weighted>
71.1262

> <Gold.Goldscore.Internal.HBond.Weighted>
0.0

> <Gold.Goldscore.Hbonds>
donor molecule, donor type, donor heavy atom, donor atom, acceptor molecule, acceptor atom, score
      P1  H   758  6690      AM2     1  0.87
      L1  H     9    34       P1   757  0.78
     AM2  H     1     2       P1   774  0.92
     AM2  H     1     3       P1  1497  0.99

> <Gold.Goldscore.External.Vdw>
51.7282

> <Gold.Goldscore.Internal.Torsion>
-3.561

> <Gold.Goldscore.Internal.Correction.Weighted>
4.3684

> <Gold.Goldscore.SBar>
-5.0

> <Gold.Version>
5.3.0

> <Gold.Id.Protein>
1ZXM|1ZXM_protein|mol2

> <Gold.ASP.Fitness>
36.2448

> <Gold.ASP.ASP>
40.7340

> <Gold.ASP.Map>
-203.6700

> <Gold.ASP.DEClash>
2.3069

> <Gold.ASP.DEInternal>
2.1823

> <Gold.ASP.Internal.Correction>
0.0967

> <Gold.Protein.RotatedTorsions>
[ 8832 2752 2751 2750 ] final  -69.09 input   60.00 | X-H torsion
[ 6909  969  968  965 ] final  -65.21 input   59.99 | X-H torsion
[ 6913  975  974  971 ] final   69.10 input   60.00 | X-H torsion
[ 6903  962  961  958 ] final -112.82 input   60.00 | X-H torsion
[ 9081 2997 2996 2994 ] final   55.90 input   60.00 | X-H torsion
[ 7408 1497 1496 1493 ] final -109.29 input   60.00 | X-H torsion
[ 7067 1220 1219 1216 ] final   48.39 input   60.00 | X-H torsion
[ 6928  995  994  992 ] final  159.25 input   60.00 | X-H torsion

> <Gold.Protein.ActiveResidues>
 GLU87   ILE88   VAL90   ASN91   ALA92   ASP94   ASN95   ARG98   ILE118  ASN120 
 LYS123  GLY124  ILE125  ILE141  PHE142  THR147  SER148  SER149  ASN150  TYR151 
 GLY160  GLY161  ARG162  ASN163  GLY164  TYR165  GLY166  ALA167  LYS168  LEU169 
 THR181  THR215  ILE217  ILE317  GLN376  LYS378  ILE33   TYR34   MG903  

> <Gold.Protein.RotatedAtoms>
   41.5745    4.8400   42.6183 H   0  0  0  0  0  0  0  0  0  0  0  0  # atno 6903 bound_to 962 
   42.1148   -3.2313   39.5805 H   0  0  0  0  0  0  0  0  0  0  0  0  # atno 6909 bound_to 969 
   38.5157   -5.5627   40.1610 H   0  0  0  0  0  0  0  0  0  0  0  0  # atno 6913 bound_to 975 
   45.5210    1.5528   40.3028 H   0  0  0  0  0  0  0  0  0  0  0  0  # atno 6928 bound_to 995 
   27.0314    0.0539   43.2286 H   0  0  0  0  0  0  0  0  0  0  0  0  # atno 7067 bound_to 1220
   28.1896    0.0737   41.7560 H   0  0  0  0  0  0  0  0  0  0  0  0  # atno 7408 bound_to 1497
   43.8908   -1.1426   30.2246 H   0  0  0  0  0  0  0  0  0  0  0  0  # atno 8832 bound_to 2752
   43.8468    0.2900   29.3920 H   0  0  0  0  0  0  0  0  0  0  0  0  # atno 8833 bound_to 2752
   43.2768    0.2171   30.9467 H   0  0  0  0  0  0  0  0  0  0  0  0  # atno 8834 bound_to 2752
   34.7318   -4.9005   44.0016 H   0  0  0  0  0  0  0  0  0  0  0  0  # atno 9081 bound_to 2997
   42.5145   -2.4518   38.2091 LP  0  0  0  0  0  0  0  0  0  0  0  0  # atno 11896 bound_to 969 
   41.0217   -2.2747   38.8469 LP  0  0  0  0  0  0  0  0  0  0  0  0  # atno 11897 bound_to 969 
   38.4317   -3.9430   40.2929 LP  0  0  0  0  0  0  0  0  0  0  0  0  # atno 11898 bound_to 975 
   37.2303   -4.8767   40.8857 LP  0  0  0  0  0  0  0  0  0  0  0  0  # atno 11899 bound_to 975 
   40.3322    3.7903   42.5684 LP  0  0  0  0  0  0  0  0  0  0  0  0  # atno 11904 bound_to 962 
   41.5314    3.6936   41.4643 LP  0  0  0  0  0  0  0  0  0  0  0  0  # atno 11905 bound_to 962 
   33.9472   -3.5700   44.5136 LP  0  0  0  0  0  0  0  0  0  0  0  0  # atno 11912 bound_to 2997
   34.1041   -4.8601   45.5024 LP  0  0  0  0  0  0  0  0  0  0  0  0  # atno 11913 bound_to 2997
   27.7778   -1.2886   40.9670 LP  0  0  0  0  0  0  0  0  0  0  0  0  # atno 11922 bound_to 1497
   26.6722   -0.5018   41.8753 LP  0  0  0  0  0  0  0  0  0  0  0  0  # atno 11923 bound_to 1497
   27.4011   -0.1938   44.7938 LP  0  0  0  0  0  0  0  0  0  0  0  0  # atno 11930 bound_to 1220
   28.5898    0.0285   43.6963 LP  0  0  0  0  0  0  0  0  0  0  0  0  # atno 11931 bound_to 1220

$$$$
****|SAP-35|sdf|1|dock4
  -GOLD-   9 823 8533D 1   1.00000     0.00000

 44 47  0  0  0  0  0  0  0  0  1 V2000
   32.9017   -4.0189   40.9584 S   0  0  0  0  0  0  0  0  0  0  0  0
   34.2160   -3.6791   39.8968 C   0  0  0  0  0  0  0  0  0  0  0  0
   35.0528   -2.6915   40.4203 C   0  0  0  0  0  0  0  0  0  0  0  0
   34.5774   -2.2289   41.6935 C   0  0  0  0  0  0  0  0  0  0  0  0
   33.4242   -2.8612   42.0958 C   0  0  0  0  0  0  0  0  0  0  0  0
   32.8617   -2.6981   43.0048 H   0  0  0  0  0  0  0  0  0  0  0  0
   35.0641   -1.4605   42.2809 H   0  0  0  0  0  0  0  0  0  0  0  0
   36.1843   -2.3010   39.6624 C   0  0  0  0  0  0  0  0  0  0  0  0
   36.4523   -2.8787   38.4074 C   0  0  0  0  0  0  0  0  0  0  0  0
   35.5925   -3.8635   37.9183 C   0  0  0  0  0  0  0  0  0  0  0  0
   34.4758   -4.2779   38.6506 C   0  0  0  0  0  0  0  0  0  0  0  0
   33.8153   -5.0458   38.2576 H   0  0  0  0  0  0  0  0  0  0  0  0
   35.7785   -4.3253   36.9498 H   0  0  0  0  0  0  0  0  0  0  0  0
   37.6490   -2.4411   37.5963 C   0  0  0  0  0  0  0  0  0  0  0  0
   38.8147   -1.4690   38.5949 S   0  0  0  0  0  0  0  0  0  0  0  0
   38.2375    0.1205   38.2389 C   0  0  0  0  0  0  0  0  0  0  0  0
   39.2192    0.9997   37.9932 N   0  0  0  0  0  0  0  0  0  0  0  0
   38.9094    2.2814   37.6877 C   0  0  0  0  0  0  0  0  0  0  0  0
   39.8097    3.0676   37.4141 O   0  0  0  0  0  0  0  0  0  0  0  0
   37.5983    2.6362   37.7073 N   0  0  0  0  0  0  0  0  0  0  0  0
   36.7224    1.7344   37.9706 C   0  0  0  0  0  0  0  0  0  0  0  0
   35.0421    2.2166   38.0198 S   0  0  0  0  0  0  0  0  0  0  0  0
   34.4609    0.8616   39.0723 C   0  0  0  0  0  0  0  0  0  0  0  0
   33.0459    0.4601   38.7381 C   0  0  0  0  0  0  0  0  0  0  0  0
   32.4311   -0.5968   39.4228 C   0  0  0  0  0  0  0  0  0  0  0  0
   31.1268   -0.9635   39.1114 C   0  0  0  0  0  0  0  0  0  0  0  0
   30.5560   -1.9840   39.7640 F   0  0  0  0  0  0  0  0  0  0  0  0
   30.4072   -0.2939   38.1300 C   0  0  0  0  0  0  0  0  0  0  0  0
   30.9931    0.7771   37.4403 C   0  0  0  0  0  0  0  0  0  0  0  0
   32.3151    1.1451   37.7519 C   0  0  0  0  0  0  0  0  0  0  0  0
   32.7786    1.9780   37.2217 H   0  0  0  0  0  0  0  0  0  0  0  0
   30.2119    1.4967   36.3695 C   0  0  0  0  0  0  0  0  0  0  0  0
   30.9252    2.4953   35.7800 F   0  0  0  0  0  0  0  0  0  0  0  0
   29.8023    0.6826   35.3572 F   0  0  0  0  0  0  0  0  0  0  0  0
   29.0833    2.0805   36.8585 F   0  0  0  0  0  0  0  0  0  0  0  0
   29.3901   -0.6110   37.9115 H   0  0  0  0  0  0  0  0  0  0  0  0
   32.9574   -1.1432   40.2016 H   0  0  0  0  0  0  0  0  0  0  0  0
   34.5124    1.1579   40.1268 H   0  0  0  0  0  0  0  0  0  0  0  0
   35.1305    0.0011   38.9569 H   0  0  0  0  0  0  0  0  0  0  0  0
   36.9953    0.4278   38.2357 N   0  0  0  0  0  0  0  0  0  0  0  0
   40.1893    0.7289   37.9951 H   0  0  0  0  0  0  0  0  0  0  0  0
   38.1598   -3.3262   37.1991 H   0  0  0  0  0  0  0  0  0  0  0  0
   37.3171   -1.8491   36.7364 H   0  0  0  0  0  0  0  0  0  0  0  0
   36.8415   -1.5302   40.0589 H   0  0  0  0  0  0  0  0  0  0  0  0
  1  2  1  0  0  0  0
  1  5  1  0  0  0  0
  2  3  2  0  0  0  0
  2 11  1  0  0  0  0
  3  4  1  0  0  0  0
  3  8  1  0  0  0  0
  4  5  2  0  0  0  0
  4  7  1  0  0  0  0
  5  6  1  0  0  0  0
  8  9  2  0  0  0  0
  8 44  1  0  0  0  0
  9 10  1  0  0  0  0
  9 14  1  0  0  0  0
 10 11  2  0  0  0  0
 10 13  1  0  0  0  0
 11 12  1  0  0  0  0
 14 15  1  0  0  0  0
 14 42  1  0  0  0  0
 14 43  1  0  0  0  0
 15 16  1  0  0  0  0
 16 17  1  0  0  0  0
 16 40  2  0  0  0  0
 17 18  1  0  0  0  0
 17 41  1  0  0  0  0
 18 19  2  0  0  0  0
 18 20  1  0  0  0  0
 20 21  2  0  0  0  0
 21 22  1  0  0  0  0
 21 40  1  0  0  0  0
 22 23  1  0  0  0  0
 23 24  1  0  0  0  0
 23 38  1  0  0  0  0
 23 39  1  0  0  0  0
 24 25  2  0  0  0  0
 24 30  1  0  0  0  0
 25 26  1  0  0  0  0
 25 37  1  0  0  0  0
 26 27  1  0  0  0  0
 26 28  2  0  0  0  0
 28 29  1  0  0  0  0
 28 36  1  0  0  0  0
 29 30  2  0  0  0  0
 29 32  1  0  0  0  0
 30 31  1  0  0  0  0
 32 33  1  0  0  0  0
 32 34  1  0  0  0  0
 32 35  1  0  0  0  0
M  END
> <Gold.Goldscore.Fitness>
66.0202

> <Gold.Goldscore.External.HBond>
7.1318

> <Gold.Protein.ActiveResidues>
 GLU87   ILE88   VAL90   ASN91   ALA92   ASP94   ASN95   ARG98   ILE118  ASN120 
 LYS123  GLY124  ILE125  ILE141  PHE142  THR147  SER148  SER149  ASN150  LYS157 
 THR159  GLY160  GLY161  ARG162  ASN163  GLY164  TYR165  GLY166  ALA167  LYS168 
 THR215  ILE217  GLN376  ILE33   TYR34   MG903  

> <Gold.Protein.RotatedWaterAtoms>
   32.4470    2.9410   36.3270 O.3 0  0  0  0  0  0  0  0  0  0  0  0  # atno 1    bound_to 2    3    AM1 OFF
   31.8359    3.0941   37.0946 H   0  0  0  0  0  0  0  0  0  0  0  0  # atno 2    bound_to 1    AM1 OFF
   31.9233    2.6242   35.5451 H   0  0  0  0  0  0  0  0  0  0  0  0  # atno 3    bound_to 1    AM1 OFF
   33.1269    2.2507   36.5746 LP  0  0  0  0  0  0  0  0  0  0  0  0  # atno 4    bound_to 1    AM1 OFF
   32.9099    3.7962   36.0938 LP  0  0  0  0  0  0  0  0  0  0  0  0  # atno 5    boun

> <Gold.Goldscore.Internal.HBond>
0.0

> <Gold.Goldscore.Internal.Torsion.Weighted>
-3.561

> <Gold.Protein.RotatedTorsions>
[ 7484 1497 1496 1493 ] final -108.15 input   60.00 | X-H torsion
[ 9179 2997 2996 2994 ] final  -52.84 input   60.00 | X-H torsion
[ 6913  975  974  971 ] final  -82.68 input   60.00 | X-H torsion
[ 6967 1046 1045 1044 ] final  -95.30 input   60.00 | X-H torsion
[ 6909  969  968  965 ] final   98.88 input   59.99 | X-H torsion

> <Gold.Goldscore.Constraint.Score>
0.0

> <Gold.Id.Protein>
1ZXM|1ZXM_protein|mol2

> <Gold.Protein.RotatedAtoms>
   41.4288   -2.0685   38.3092 H   0  0  0  0  0  0  0  0  0  0  0  0  # atno 6909 bound_to 969 
   37.9862   -3.8673   40.5387 H   0  0  0  0  0  0  0  0  0  0  0  0  # atno 6913 bound_to 975 
   40.2006   -9.0468   40.8017 H   0  0  0  0  0  0  0  0  0  0  0  0  # atno 6967 bound_to 1046
   39.1096   -8.3546   39.7634 H   0  0  0  0  0  0  0  0  0  0  0  0  # atno 6968 bound_to 1046
   38.5752   -9.1830   41.0960 H   0  0  0  0  0  0  0  0  0  0  0  0  # atno 6969 bound_to 1046
   28.1768    0.0826   41.7

> <Gold.Version>
5.3.0

> <Gold.Goldscore.Internal.Correction>
4.3684

> <Gold.Goldscore.Internal.Vdw>
0.6917

> <Gold.Goldscore.Internal.Vdw.Weighted>
0.6917

> <Gold.Goldscore.External.HBond.Weighted>
7.1318

> <Gold.Goldscore.External.Vdw.Weighted>
71.1262

> <Gold.Goldscore.Internal.HBond.Weighted>
0.0

> <Gold.Goldscore.Hbonds>
donor molecule, donor type, donor heavy atom, donor atom, acceptor molecule, acceptor atom, score
      P1  H   758  6690      AM2     1  0.87
      L1  H     9    34       P1   757  0.78
     AM2  H     1     2       P1   774  0.92
     AM2  H     1     3       P1  1497  0.99

> <Gold.Goldscore.External.Vdw>
51.7282

> <Gold.Goldscore.Internal.Torsion>
-3.561

> <Gold.Goldscore.Internal.Correction.Weighted>
4.3684

> <Gold.Goldscore.SBar>
-5.0

> <Gold.Version>
5.3.0

> <Gold.Id.Protein>
1ZXM|1ZXM_protein|mol2

> <Gold.ASP.Fitness>
35.2876

> <Gold.ASP.ASP>
40.5540

> <Gold.ASP.Map>
-202.7700

> <Gold.ASP.DEClash>
4.2388

> <Gold.ASP.DEInternal>
1.0277

> <Gold.ASP.Internal.Correction>
0.0967

> <Gold.Protein.RotatedTorsions>
[ 8832 2752 2751 2750 ] final -122.11 input   60.00 | X-H torsion
[ 6909  969  968  965 ] final   55.06 input   59.99 | X-H torsion
[ 6913  975  974  971 ] final   45.28 input   60.00 | X-H torsion
[ 6903  962  961  958 ] final   65.17 input   60.00 | X-H torsion
[ 9081 2997 2996 2994 ] final  126.96 input   60.00 | X-H torsion
[ 7408 1497 1496 1493 ] final   42.64 input   60.00 | X-H torsion
[ 7067 1220 1219 1216 ] final -131.81 input   60.00 | X-H torsion
[ 6928  995  994  992 ] final  170.69 input   60.00 | X-H torsion

> <Gold.Protein.ActiveResidues>
 GLU87   ILE88   VAL90   ASN91   ALA92   ASP94   ASN95   ARG98   ILE118  ASN120 
 LYS123  GLY124  ILE125  ILE141  PHE142  THR147  SER148  SER149  ASN150  TYR151 
 GLY160  GLY161  ARG162  ASN163  GLY164  TYR165  GLY166  ALA167  LYS168  LEU169 
 THR181  THR215  ILE217  ILE317  GLN376  LYS378  ILE33   TYR34   MG903  

> <Gold.Protein.RotatedAtoms>
   40.7454    3.3760   41.7975 H   0  0  0  0  0  0  0  0  0  0  0  0  # atno 6903 bound_to 962 
   41.0295   -2.2734   38.8447 H   0  0  0  0  0  0  0  0  0  0  0  0  # atno 6909 bound_to 969 
   38.7551   -5.2813   40.0482 H   0  0  0  0  0  0  0  0  0  0  0  0  # atno 6913 bound_to 975 
   45.6832    1.5811   40.3907 H   0  0  0  0  0  0  0  0  0  0  0  0  # atno 6928 bound_to 995 
   28.3159   -0.1243   44.5790 H   0  0  0  0  0  0  0  0  0  0  0  0  # atno 7067 bound_to 1220
   26.6830   -0.9256   41.5794 H   0  0  0  0  0  0  0  0  0  0  0  0  # atno 7408 bound_to 1497
   43.5405   -0.8052   30.9270 H   0  0  0  0  0  0  0  0  0  0  0  0  # atno 8832 bound_to 2752
   44.0601   -0.5372   29.3761 H   0  0  0  0  0  0  0  0  0  0  0  0  # atno 8833 bound_to 2752
   43.4138    0.7069   30.2603 H   0  0  0  0  0  0  0  0  0  0  0  0  # atno 8834 bound_to 2752
   34.5006   -5.2918   44.9902 H   0  0  0  0  0  0  0  0  0  0  0  0  # atno 9081 bound_to 2997
   42.1116   -3.2367   39.5859 LP  0  0  0  0  0  0  0  0  0  0  0  0  # atno 11896 bound_to 969 
   42.5175   -2.4544   38.2111 LP  0  0  0  0  0  0  0  0  0  0  0  0  # atno 11897 bound_to 969 
   38.0999   -3.8544   40.4758 LP  0  0  0  0  0  0  0  0  0  0  0  0  # atno 11898 bound_to 975 
   37.3210   -5.2486   40.8166 LP  0  0  0  0  0  0  0  0  0  0  0  0  # atno 11899 bound_to 975 
   41.9616    4.4532   41.8901 LP  0  0  0  0  0  0  0  0  0  0  0  0  # atno 11904 bound_to 962 
   40.7371    4.5052   42.9692 LP  0  0  0  0  0  0  0  0  0  0  0  0  # atno 11905 bound_to 962 
   34.5029   -4.1852   43.7971 LP  0  0  0  0  0  0  0  0  0  0  0  0  # atno 11912 bound_to 2997
   33.7812   -3.8508   45.2233 LP  0  0  0  0  0  0  0  0  0  0  0  0  # atno 11913 bound_to 2997
   27.7592    0.2192   42.0027 LP  0  0  0  0  0  0  0  0  0  0  0  0  # atno 11922 bound_to 1497
   28.2081   -1.0032   41.0174 LP  0  0  0  0  0  0  0  0  0  0  0  0  # atno 11923 bound_to 1497
   27.9410    0.1185   43.0143 LP  0  0  0  0  0  0  0  0  0  0  0  0  # atno 11930 bound_to 1220
   26.7562   -0.1043   44.1157 LP  0  0  0  0  0  0  0  0  0  0  0  0  # atno 11931 bound_to 1220

$$$$
****|SAP-35|sdf|1|dock3
  -GOLD-   9 823 8533D 1   1.00000     0.00000

 44 47  0  0  0  0  0  0  0  0  1 V2000
   37.1878    1.1141   38.4045 S   0  0  0  0  0  0  0  0  0  0  0  0
   36.8224   -0.5548   38.1785 C   0  0  0  0  0  0  0  0  0  0  0  0
   37.4049   -1.3440   39.1723 C   0  0  0  0  0  0  0  0  0  0  0  0
   38.1538   -0.5433   40.0993 C   0  0  0  0  0  0  0  0  0  0  0  0
   38.1202    0.7978   39.7965 C   0  0  0  0  0  0  0  0  0  0  0  0
   38.6001    1.6090   40.3266 H   0  0  0  0  0  0  0  0  0  0  0  0
   38.6957   -0.9429   40.9473 H   0  0  0  0  0  0  0  0  0  0  0  0
   37.1943   -2.7442   39.1254 C   0  0  0  0  0  0  0  0  0  0  0  0
   36.4327   -3.3299   38.0971 C   0  0  0  0  0  0  0  0  0  0  0  0
   35.8660   -2.5074   37.1221 C   0  0  0  0  0  0  0  0  0  0  0  0
   36.0462   -1.1212   37.1510 C   0  0  0  0  0  0  0  0  0  0  0  0
   35.5989   -0.4930   36.3856 H   0  0  0  0  0  0  0  0  0  0  0  0
   35.2728   -2.9369   36.3162 H   0  0  0  0  0  0  0  0  0  0  0  0
   36.2310   -4.8259   38.0427 C   0  0  0  0  0  0  0  0  0  0  0  0
   34.5411   -5.2549   37.5314 S   0  0  0  0  0  0  0  0  0  0  0  0
   33.6505   -4.2758   38.6425 C   0  0  0  0  0  0  0  0  0  0  0  0
   34.1076   -4.3498   39.9006 N   0  0  0  0  0  0  0  0  0  0  0  0
   33.5102   -3.6235   40.8740 C   0  0  0  0  0  0  0  0  0  0  0  0
   33.9651   -3.6565   42.0123 O   0  0  0  0  0  0  0  0  0  0  0  0
   32.4177   -2.8908   40.5351 N   0  0  0  0  0  0  0  0  0  0  0  0
   32.0355   -2.8902   39.3089 C   0  0  0  0  0  0  0  0  0  0  0  0
   30.6100   -1.9644   38.8975 S   0  0  0  0  0  0  0  0  0  0  0  0
   31.2783   -0.3376   39.3319 C   0  0  0  0  0  0  0  0  0  0  0  0
   31.1366    0.6471   38.1980 C   0  0  0  0  0  0  0  0  0  0  0  0
   32.2141    1.4663   37.8353 C   0  0  0  0  0  0  0  0  0  0  0  0
   32.0791    2.3725   36.7897 C   0  0  0  0  0  0  0  0  0  0  0  0
   33.1122    3.1589   36.4622 F   0  0  0  0  0  0  0  0  0  0  0  0
   30.8884    2.4814   36.0827 C   0  0  0  0  0  0  0  0  0  0  0  0
   29.7996    1.6628   36.4150 C   0  0  0  0  0  0  0  0  0  0  0  0
   29.9345    0.7491   37.4766 C   0  0  0  0  0  0  0  0  0  0  0  0
   29.0934    0.1071   37.7413 H   0  0  0  0  0  0  0  0  0  0  0  0
   28.5055    1.7893   35.6507 C   0  0  0  0  0  0  0  0  0  0  0  0
   27.4469    2.0832   36.4546 F   0  0  0  0  0  0  0  0  0  0  0  0
   28.5316    2.7617   34.6972 F   0  0  0  0  0  0  0  0  0  0  0  0
   28.1753    0.6391   35.0015 F   0  0  0  0  0  0  0  0  0  0  0  0
   30.8189    3.2039   35.2728 H   0  0  0  0  0  0  0  0  0  0  0  0
   33.1650    1.4087   38.3593 H   0  0  0  0  0  0  0  0  0  0  0  0
   32.3374   -0.4276   39.6014 H   0  0  0  0  0  0  0  0  0  0  0  0
   30.7608    0.0402   40.2216 H   0  0  0  0  0  0  0  0  0  0  0  0
   32.6400   -3.5707   38.2973 N   0  0  0  0  0  0  0  0  0  0  0  0
   34.9104   -4.9076   40.1435 H   0  0  0  0  0  0  0  0  0  0  0  0
   36.9469   -5.2618   37.3360 H   0  0  0  0  0  0  0  0  0  0  0  0
   36.4417   -5.2639   39.0244 H   0  0  0  0  0  0  0  0  0  0  0  0
   37.6460   -3.3693   39.8927 H   0  0  0  0  0  0  0  0  0  0  0  0
  1  2  1  0  0  0  0
  1  5  1  0  0  0  0
  2  3  2  0  0  0  0
  2 11  1  0  0  0  0
  3  4  1  0  0  0  0
  3  8  1  0  0  0  0
  4  5  2  0  0  0  0
  4  7  1  0  0  0  0
  5  6  1  0  0  0  0
  8  9  2  0  0  0  0
  8 44  1  0  0  0  0
  9 10  1  0  0  0  0
  9 14  1  0  0  0  0
 10 11  2  0  0  0  0
 10 13  1  0  0  0  0
 11 12  1  0  0  0  0
 14 15  1  0  0  0  0
 14 42  1  0  0  0  0
 14 43  1  0  0  0  0
 15 16  1  0  0  0  0
 16 17  1  0  0  0  0
 16 40  2  0  0  0  0
 17 18  1  0  0  0  0
 17 41  1  0  0  0  0
 18 19  2  0  0  0  0
 18 20  1  0  0  0  0
 20 21  2  0  0  0  0
 21 22  1  0  0  0  0
 21 40  1  0  0  0  0
 22 23  1  0  0  0  0
 23 24  1  0  0  0  0
 23 38  1  0  0  0  0
 23 39  1  0  0  0  0
 24 25  2  0  0  0  0
 24 30  1  0  0  0  0
 25 26  1  0  0  0  0
 25 37  1  0  0  0  0
 26 27  1  0  0  0  0
 26 28  2  0  0  0  0
 28 29  1  0  0  0  0
 28 36  1  0  0  0  0
 29 30  2  0  0  0  0
 29 32  1  0  0  0  0
 30 31  1  0  0  0  0
 32 33  1  0  0  0  0
 32 34  1  0  0  0  0
 32 35  1  0  0  0  0
M  END
> <Gold.Goldscore.Fitness>
66.0202

> <Gold.Goldscore.External.HBond>
7.1318

> <Gold.Protein.ActiveResidues>
 GLU87   ILE88   VAL90   ASN91   ALA92   ASP94   ASN95   ARG98   ILE118  ASN120 
 LYS123  GLY124  ILE125  ILE141  PHE142  THR147  SER148  SER149  ASN150  LYS157 
 THR159  GLY160  GLY161  ARG162  ASN163  GLY164  TYR165  GLY166  ALA167  LYS168 
 THR215  ILE217  GLN376  ILE33   TYR34   MG903  

> <Gold.Protein.RotatedWaterAtoms>
   32.4470    2.9410   36.3270 O.3 0  0  0  0  0  0  0  0  0  0  0  0  # atno 1    bound_to 2    3    AM1 OFF
   31.8359    3.0941   37.0946 H   0  0  0  0  0  0  0  0  0  0  0  0  # atno 2    bound_to 1    AM1 OFF
   31.9233    2.6242   35.5451 H   0  0  0  0  0  0  0  0  0  0  0  0  # atno 3    bound_to 1    AM1 OFF
   33.1269    2.2507   36.5746 LP  0  0  0  0  0  0  0  0  0  0  0  0  # atno 4    bound_to 1    AM1 OFF
   32.9099    3.7962   36.0938 LP  0  0  0  0  0  0  0  0  0  0  0  0  # atno 5    boun

> <Gold.Goldscore.Internal.HBond>
0.0

> <Gold.Goldscore.Internal.Torsion.Weighted>
-3.561

> <Gold.Protein.RotatedTorsions>
[ 7484 1497 1496 1493 ] final -108.15 input   60.00 | X-H torsion
[ 9179 2997 2996 2994 ] final  -52.84 input   60.00 | X-H torsion
[ 6913  975  974  971 ] final  -82.68 input   60.00 | X-H torsion
[ 6967 1046 1045 1044 ] final  -95.30 input   60.00 | X-H torsion
[ 6909  969  968  965 ] final   98.88 input   59.99 | X-H torsion

> <Gold.Goldscore.Constraint.Score>
0.0

> <Gold.Id.Protein>
1ZXM|1ZXM_protein|mol2

> <Gold.Protein.RotatedAtoms>
   41.4288   -2.0685   38.3092 H   0  0  0  0  0  0  0  0  0  0  0  0  # atno 6909 bound_to 969 
   37.9862   -3.8673   40.5387 H   0  0  0  0  0  0  0  0  0  0  0  0  # atno 6913 bound_to 975 
   40.2006   -9.0468   40.8017 H   0  0  0  0  0  0  0  0  0  0  0  0  # atno 6967 bound_to 1046
   39.1096   -8.3546   39.7634 H   0  0  0  0  0  0  0  0  0  0  0  0  # atno 6968 bound_to 1046
   38.5752   -9.1830   41.0960 H   0  0  0  0  0  0  0  0  0  0  0  0  # atno 6969 bound_to 1046
   28.1768    0.0826   41.7

> <Gold.Version>
5.3.0

> <Gold.Goldscore.Internal.Correction>
4.3684

> <Gold.Goldscore.Internal.Vdw>
0.6917

> <Gold.Goldscore.Internal.Vdw.Weighted>
0.6917

> <Gold.Goldscore.External.HBond.Weighted>
7.1318

> <Gold.Goldscore.External.Vdw.Weighted>
71.1262

> <Gold.Goldscore.Internal.HBond.Weighted>
0.0

> <Gold.Goldscore.Hbonds>
donor molecule, donor type, donor heavy atom, donor atom, acceptor molecule, acceptor atom, score
      P1  H   758  6690      AM2     1  0.87
      L1  H     9    34       P1   757  0.78
     AM2  H     1     2       P1   774  0.92
     AM2  H     1     3       P1  1497  0.99

> <Gold.Goldscore.External.Vdw>
51.7282

> <Gold.Goldscore.Internal.Torsion>
-3.561

> <Gold.Goldscore.Internal.Correction.Weighted>
4.3684

> <Gold.Goldscore.SBar>
-5.0

> <Gold.Version>
5.3.0

> <Gold.Id.Protein>
1ZXM|1ZXM_protein|mol2

> <Gold.ASP.Fitness>
34.5678

> <Gold.ASP.ASP>
37.7420

> <Gold.ASP.Map>
-188.7100

> <Gold.ASP.DEClash>
2.1993

> <Gold.ASP.DEInternal>
0.9750

> <Gold.ASP.Internal.Correction>
0.0967

> <Gold.Protein.RotatedTorsions>
[ 8832 2752 2751 2750 ] final -127.77 input   60.00 | X-H torsion
[ 6909  969  968  965 ] final   42.17 input   59.99 | X-H torsion
[ 6913  975  974  971 ] final  -34.59 input   60.00 | X-H torsion
[ 6903  962  961  958 ] final -113.50 input   60.00 | X-H torsion
[ 9081 2997 2996 2994 ] final  108.61 input   60.00 | X-H torsion
[ 7408 1497 1496 1493 ] final  -50.77 input   60.00 | X-H torsion
[ 7067 1220 1219 1216 ] final  -84.31 input   60.00 | X-H torsion
[ 6928  995  994  992 ] final  146.68 input   60.00 | X-H torsion

> <Gold.Protein.ActiveResidues>
 GLU87   ILE88   VAL90   ASN91   ALA92   ASP94   ASN95   ARG98   ILE118  ASN120 
 LYS123  GLY124  ILE125  ILE141  PHE142  THR147  SER148  SER149  ASN150  TYR151 
 GLY160  GLY161  ARG162  ASN163  GLY164  TYR165  GLY166  ALA167  LYS168  LEU169 
 THR181  THR215  ILE217  ILE317  GLN376  LYS378  ILE33   TYR34   MG903  

> <Gold.Protein.RotatedAtoms>
   41.5664    4.8406   42.6258 H   0  0  0  0  0  0  0  0  0  0  0  0  # atno 6903 bound_to 962 
   40.9992   -2.3830   39.0214 H   0  0  0  0  0  0  0  0  0  0  0  0  # atno 6909 bound_to 969 
   38.6227   -4.0945   40.1847 H   0  0  0  0  0  0  0  0  0  0  0  0  # atno 6913 bound_to 975 
   45.3678    1.5133   40.1724 H   0  0  0  0  0  0  0  0  0  0  0  0  # atno 6928 bound_to 995 
   27.6065   -0.1897   44.8258 H   0  0  0  0  0  0  0  0  0  0  0  0  # atno 7067 bound_to 1220
   27.3422    0.1508   42.0931 H   0  0  0  0  0  0  0  0  0  0  0  0  # atno 7408 bound_to 1497
   43.5043   -0.7316   30.9737 H   0  0  0  0  0  0  0  0  0  0  0  0  # atno 8832 bound_to 2752
   44.0654   -0.6216   29.4179 H   0  0  0  0  0  0  0  0  0  0  0  0  # atno 8833 bound_to 2752
   43.4447    0.7177   30.1718 H   0  0  0  0  0  0  0  0  0  0  0  0  # atno 8834 bound_to 2752
   34.6188   -5.3090   44.7165 H   0  0  0  0  0  0  0  0  0  0  0  0  # atno 9081 bound_to 2997
   42.2984   -3.2454   39.4867 LP  0  0  0  0  0  0  0  0  0  0  0  0  # atno 11896 bound_to 969 
   42.3613   -2.3353   38.1323 LP  0  0  0  0  0  0  0  0  0  0  0  0  # atno 11897 bound_to 969 
   37.2498   -4.6098   40.8900 LP  0  0  0  0  0  0  0  0  0  0  0  0  # atno 11898 bound_to 975 
   38.3044   -5.6884   40.2648 LP  0  0  0  0  0  0  0  0  0  0  0  0  # atno 11899 bound_to 975 
   40.3319    3.7824   42.5605 LP  0  0  0  0  0  0  0  0  0  0  0  0  # atno 11904 bound_to 962 
   41.5399    3.7009   41.4647 LP  0  0  0  0  0  0  0  0  0  0  0  0  # atno 11905 bound_to 962 
   34.3598   -3.9352   43.8837 LP  0  0  0  0  0  0  0  0  0  0  0  0  # atno 11912 bound_to 2997
   33.8052   -4.0835   45.4124 LP  0  0  0  0  0  0  0  0  0  0  0  0  # atno 11913 bound_to 2997
   28.4178   -0.6607   41.1808 LP  0  0  0  0  0  0  0  0  0  0  0  0  # atno 11922 bound_to 1497
   26.8856   -1.2074   41.3219 LP  0  0  0  0  0  0  0  0  0  0  0  0  # atno 11923 bound_to 1497
   28.5198    0.0581   43.5021 LP  0  0  0  0  0  0  0  0  0  0  0  0  # atno 11930 bound_to 1220
   26.8919    0.0219   43.3793 LP  0  0  0  0  0  0  0  0  0  0  0  0  # atno 11931 bound_to 1220

$$$$
****|SAP-35|sdf|1|dock10
  -GOLD-   9 823 8543D 1   1.00000     0.00000

 44 47  0  0  0  0  0  0  0  0  1 V2000
   36.0331   -9.8880   39.9569 S   0  0  0  0  0  0  0  0  0  0  0  0
   35.8189   -8.3119   39.2935 C   0  0  0  0  0  0  0  0  0  0  0  0
   35.9432   -7.3246   40.2731 C   0  0  0  0  0  0  0  0  0  0  0  0
   36.2054   -7.9010   41.5615 C   0  0  0  0  0  0  0  0  0  0  0  0
   36.2747   -9.2742   41.5292 C   0  0  0  0  0  0  0  0  0  0  0  0
   36.4552   -9.9482   42.3553 H   0  0  0  0  0  0  0  0  0  0  0  0
   36.3318   -7.3256   42.4700 H   0  0  0  0  0  0  0  0  0  0  0  0
   35.7941   -5.9709   39.8828 C   0  0  0  0  0  0  0  0  0  0  0  0
   35.5119   -5.6269   38.5477 C   0  0  0  0  0  0  0  0  0  0  0  0
   35.3957   -6.6425   37.5973 C   0  0  0  0  0  0  0  0  0  0  0  0
   35.5511   -7.9861   37.9515 C   0  0  0  0  0  0  0  0  0  0  0  0
   35.4582   -8.7663   37.2010 H   0  0  0  0  0  0  0  0  0  0  0  0
   35.1774   -6.4017   36.5580 H   0  0  0  0  0  0  0  0  0  0  0  0
   35.3332   -4.1822   38.1444 C   0  0  0  0  0  0  0  0  0  0  0  0
   36.4659   -3.7175   36.8020 S   0  0  0  0  0  0  0  0  0  0  0  0
   37.0755   -2.2338   37.4449 C   0  0  0  0  0  0  0  0  0  0  0  0
   38.0056   -1.6604   36.6681 N   0  0  0  0  0  0  0  0  0  0  0  0
   38.5610   -0.4851   37.0449 C   0  0  0  0  0  0  0  0  0  0  0  0
   39.3734    0.0594   36.3052 O   0  0  0  0  0  0  0  0  0  0  0  0
   38.1888    0.0339   38.2439 N   0  0  0  0  0  0  0  0  0  0  0  0
   37.3036   -0.5901   38.9344 C   0  0  0  0  0  0  0  0  0  0  0  0
   36.8587    0.0779   40.4882 S   0  0  0  0  0  0  0  0  0  0  0  0
   35.3622    0.9345   39.9327 C   0  0  0  0  0  0  0  0  0  0  0  0
   34.2449   -0.0315   39.6267 C   0  0  0  0  0  0  0  0  0  0  0  0
   33.5687    0.0361   38.4011 C   0  0  0  0  0  0  0  0  0  0  0  0
   32.5394   -0.8562   38.1233 C   0  0  0  0  0  0  0  0  0  0  0  0
   31.8925   -0.7720   36.9539 F   0  0  0  0  0  0  0  0  0  0  0  0
   32.1655   -1.8299   39.0408 C   0  0  0  0  0  0  0  0  0  0  0  0
   32.8358   -1.9293   40.2683 C   0  0  0  0  0  0  0  0  0  0  0  0
   33.8743   -1.0230   40.5517 C   0  0  0  0  0  0  0  0  0  0  0  0
   34.4025   -1.0937   41.5034 H   0  0  0  0  0  0  0  0  0  0  0  0
   32.4219   -2.9823   41.2656 C   0  0  0  0  0  0  0  0  0  0  0  0
   32.9926   -2.8014   42.4883 F   0  0  0  0  0  0  0  0  0  0  0  0
   31.0780   -3.0246   41.4834 F   0  0  0  0  0  0  0  0  0  0  0  0
   32.7751   -4.2358   40.8688 F   0  0  0  0  0  0  0  0  0  0  0  0
   31.3536   -2.5084   38.7898 H   0  0  0  0  0  0  0  0  0  0  0  0
   33.8339    0.7794   37.6535 H   0  0  0  0  0  0  0  0  0  0  0  0
   35.5812    1.5283   39.0373 H   0  0  0  0  0  0  0  0  0  0  0  0
   35.0425    1.6426   40.7063 H   0  0  0  0  0  0  0  0  0  0  0  0
   36.6912   -1.7477   38.5645 N   0  0  0  0  0  0  0  0  0  0  0  0
   38.2845   -2.0613   35.7872 H   0  0  0  0  0  0  0  0  0  0  0  0
   34.2984   -4.0229   37.8192 H   0  0  0  0  0  0  0  0  0  0  0  0
   35.5013   -3.5325   39.0103 H   0  0  0  0  0  0  0  0  0  0  0  0
   35.8857   -5.1934   40.6382 H   0  0  0  0  0  0  0  0  0  0  0  0
  1  2  1  0  0  0  0
  1  5  1  0  0  0  0
  2  3  2  0  0  0  0
  2 11  1  0  0  0  0
  3  4  1  0  0  0  0
  3  8  1  0  0  0  0
  4  5  2  0  0  0  0
  4  7  1  0  0  0  0
  5  6  1  0  0  0  0
  8  9  2  0  0  0  0
  8 44  1  0  0  0  0
  9 10  1  0  0  0  0
  9 14  1  0  0  0  0
 10 11  2  0  0  0  0
 10 13  1  0  0  0  0
 11 12  1  0  0  0  0
 14 15  1  0  0  0  0
 14 42  1  0  0  0  0
 14 43  1  0  0  0  0
 15 16  1  0  0  0  0
 16 17  1  0  0  0  0
 16 40  2  0  0  0  0
 17 18  1  0  0  0  0
 17 41  1  0  0  0  0
 18 19  2  0  0  0  0
 18 20  1  0  0  0  0
 20 21  2  0  0  0  0
 21 22  1  0  0  0  0
 21 40  1  0  0  0  0
 22 23  1  0  0  0  0
 23 24  1  0  0  0  0
 23 38  1  0  0  0  0
 23 39  1  0  0  0  0
 24 25  2  0  0  0  0
 24 30  1  0  0  0  0
 25 26  1  0  0  0  0
 25 37  1  0  0  0  0
 26 27  1  0  0  0  0
 26 28  2  0  0  0  0
 28 29  1  0  0  0  0
 28 36  1  0  0  0  0
 29 30  2  0  0  0  0
 29 32  1  0  0  0  0
 30 31  1  0  0  0  0
 32 33  1  0  0  0  0
 32 34  1  0  0  0  0
 32 35  1  0  0  0  0
M  END
> <Gold.Goldscore.Fitness>
66.0202

> <Gold.Goldscore.External.HBond>
7.1318

> <Gold.Protein.ActiveResidues>
 GLU87   ILE88   VAL90   ASN91   ALA92   ASP94   ASN95   ARG98   ILE118  ASN120 
 LYS123  GLY124  ILE125  ILE141  PHE142  THR147  SER148  SER149  ASN150  LYS157 
 THR159  GLY160  GLY161  ARG162  ASN163  GLY164  TYR165  GLY166  ALA167  LYS168 
 THR215  ILE217  GLN376  ILE33   TYR34   MG903  

> <Gold.Protein.RotatedWaterAtoms>
   32.4470    2.9410   36.3270 O.3 0  0  0  0  0  0  0  0  0  0  0  0  # atno 1    bound_to 2    3    AM1 OFF
   31.8359    3.0941   37.0946 H   0  0  0  0  0  0  0  0  0  0  0  0  # atno 2    bound_to 1    AM1 OFF
   31.9233    2.6242   35.5451 H   0  0  0  0  0  0  0  0  0  0  0  0  # atno 3    bound_to 1    AM1 OFF
   33.1269    2.2507   36.5746 LP  0  0  0  0  0  0  0  0  0  0  0  0  # atno 4    bound_to 1    AM1 OFF
   32.9099    3.7962   36.0938 LP  0  0  0  0  0  0  0  0  0  0  0  0  # atno 5    boun

> <Gold.Goldscore.Internal.HBond>
0.0

> <Gold.Goldscore.Internal.Torsion.Weighted>
-3.561

> <Gold.Protein.RotatedTorsions>
[ 7484 1497 1496 1493 ] final -108.15 input   60.00 | X-H torsion
[ 9179 2997 2996 2994 ] final  -52.84 input   60.00 | X-H torsion
[ 6913  975  974  971 ] final  -82.68 input   60.00 | X-H torsion
[ 6967 1046 1045 1044 ] final  -95.30 input   60.00 | X-H torsion
[ 6909  969  968  965 ] final   98.88 input   59.99 | X-H torsion

> <Gold.Goldscore.Constraint.Score>
0.0

> <Gold.Id.Protein>
1ZXM|1ZXM_protein|mol2

> <Gold.Protein.RotatedAtoms>
   41.4288   -2.0685   38.3092 H   0  0  0  0  0  0  0  0  0  0  0  0  # atno 6909 bound_to 969 
   37.9862   -3.8673   40.5387 H   0  0  0  0  0  0  0  0  0  0  0  0  # atno 6913 bound_to 975 
   40.2006   -9.0468   40.8017 H   0  0  0  0  0  0  0  0  0  0  0  0  # atno 6967 bound_to 1046
   39.1096   -8.3546   39.7634 H   0  0  0  0  0  0  0  0  0  0  0  0  # atno 6968 bound_to 1046
   38.5752   -9.1830   41.0960 H   0  0  0  0  0  0  0  0  0  0  0  0  # atno 6969 bound_to 1046
   28.1768    0.0826   41.7

> <Gold.Version>
5.3.0

> <Gold.Goldscore.Internal.Correction>
4.3684

> <Gold.Goldscore.Internal.Vdw>
0.6917

> <Gold.Goldscore.Internal.Vdw.Weighted>
0.6917

> <Gold.Goldscore.External.HBond.Weighted>
7.1318

> <Gold.Goldscore.External.Vdw.Weighted>
71.1262

> <Gold.Goldscore.Internal.HBond.Weighted>
0.0

> <Gold.Goldscore.Hbonds>
donor molecule, donor type, donor heavy atom, donor atom, acceptor molecule, acceptor atom, score
      P1  H   758  6690      AM2     1  0.87
      L1  H     9    34       P1   757  0.78
     AM2  H     1     2       P1   774  0.92
     AM2  H     1     3       P1  1497  0.99

> <Gold.Goldscore.External.Vdw>
51.7282

> <Gold.Goldscore.Internal.Torsion>
-3.561

> <Gold.Goldscore.Internal.Correction.Weighted>
4.3684

> <Gold.Goldscore.SBar>
-5.0

> <Gold.Version>
5.3.0

> <Gold.Id.Protein>
1ZXM|1ZXM_protein|mol2

> <Gold.ASP.Fitness>
33.5198

> <Gold.ASP.ASP>
36.0180

> <Gold.ASP.Map>
-180.0900

> <Gold.ASP.DEClash>
1.4721

> <Gold.ASP.DEInternal>
1.0261

> <Gold.ASP.Internal.Correction>
0.0967

> <Gold.Protein.RotatedTorsions>
[ 8832 2752 2751 2750 ] final  169.42 input   60.00 | X-H torsion
[ 6909  969  968  965 ] final  -22.38 input   59.99 | X-H torsion
[ 6913  975  974  971 ] final -110.26 input   60.00 | X-H torsion
[ 6903  962  961  958 ] final  179.28 input   60.00 | X-H torsion
[ 9081 2997 2996 2994 ] final  137.34 input   60.00 | X-H torsion
[ 7408 1497 1496 1493 ] final   64.44 input   60.00 | X-H torsion
[ 7067 1220 1219 1216 ] final  -75.53 input   60.00 | X-H torsion
[ 6928  995  994  992 ] final -138.92 input   60.00 | X-H torsion

> <Gold.Protein.ActiveResidues>
 GLU87   ILE88   VAL90   ASN91   ALA92   ASP94   ASN95   ARG98   ILE118  ASN120 
 LYS123  GLY124  ILE125  ILE141  PHE142  THR147  SER148  SER149  ASN150  TYR151 
 GLY160  GLY161  ARG162  ASN163  GLY164  TYR165  GLY166  ALA167  LYS168  LEU169 
 THR181  THR215  ILE217  ILE317  GLN376  LYS378  ILE33   TYR34   MG903  

> <Gold.Protein.RotatedAtoms>
   40.6714    4.4353   42.9557 H   0  0  0  0  0  0  0  0  0  0  0  0  # atno 6903 bound_to 962 
   41.4717   -3.0081   39.6427 H   0  0  0  0  0  0  0  0  0  0  0  0  # atno 6909 bound_to 969 
   37.6142   -4.0233   40.7296 H   0  0  0  0  0  0  0  0  0  0  0  0  # atno 6913 bound_to 975 
   46.4797    1.5976   40.3676 H   0  0  0  0  0  0  0  0  0  0  0  0  # atno 6928 bound_to 995 
   27.4648   -0.1910   44.8043 H   0  0  0  0  0  0  0  0  0  0  0  0  # atno 7067 bound_to 1220
   26.8404   -1.1604   41.3663 H   0  0  0  0  0  0  0  0  0  0  0  0  # atno 7408 bound_to 1497
   43.2763    0.2385   30.9340 H   0  0  0  0  0  0  0  0  0  0  0  0  # atno 8832 bound_to 2752
   43.8821   -1.1434   30.2478 H   0  0  0  0  0  0  0  0  0  0  0  0  # atno 8833 bound_to 2752
   43.8560    0.2695   29.3815 H   0  0  0  0  0  0  0  0  0  0  0  0  # atno 8834 bound_to 2752
   34.4222   -5.2434   45.1323 H   0  0  0  0  0  0  0  0  0  0  0  0  # atno 9081 bound_to 2997
   42.7758   -2.8836   38.6773 LP  0  0  0  0  0  0  0  0  0  0  0  0  # atno 11896 bound_to 969 
   41.4081   -2.0678   38.3161 LP  0  0  0  0  0  0  0  0  0  0  0  0  # atno 11897 bound_to 969 
   37.6798   -5.6443   40.6022 LP  0  0  0  0  0  0  0  0  0  0  0  0  # atno 11898 bound_to 975 
   38.8901   -4.7257   40.0038 LP  0  0  0  0  0  0  0  0  0  0  0  0  # atno 11899 bound_to 975 
   40.8161    3.3731   41.7314 LP  0  0  0  0  0  0  0  0  0  0  0  0  # atno 11904 bound_to 962 
   41.9570    4.5185   41.9615 LP  0  0  0  0  0  0  0  0  0  0  0  0  # atno 11905 bound_to 962 
   34.5737   -4.3400   43.7873 LP  0  0  0  0  0  0  0  0  0  0  0  0  # atno 11912 bound_to 2997
   33.7894   -3.7448   45.0901 LP  0  0  0  0  0  0  0  0  0  0  0  0  # atno 11913 bound_to 2997
   27.4160    0.1786   42.0901 LP  0  0  0  0  0  0  0  0  0  0  0  0  # atno 11922 bound_to 1497
   28.3928   -0.7261   41.1446 LP  0  0  0  0  0  0  0  0  0  0  0  0  # atno 11923 bound_to 1497
   28.5729    0.0380   43.6349 LP  0  0  0  0  0  0  0  0  0  0  0  0  # atno 11930 bound_to 1220
   26.9816    0.0433   43.2682 LP  0  0  0  0  0  0  0  0  0  0  0  0  # atno 11931 bound_to 1220

$$$$
****|SAP-35|sdf|1|dock5
  -GOLD-   9 823 8533D 1   1.00000     0.00000

 44 47  0  0  0  0  0  0  0  0  1 V2000
   31.8666    2.3811   36.5668 S   0  0  0  0  0  0  0  0  0  0  0  0
   31.7562    1.0263   37.6262 C   0  0  0  0  0  0  0  0  0  0  0  0
   30.6391    0.2407   37.3354 C   0  0  0  0  0  0  0  0  0  0  0  0
   29.8896    0.7882   36.2402 C   0  0  0  0  0  0  0  0  0  0  0  0
   30.4424    1.9431   35.7380 C   0  0  0  0  0  0  0  0  0  0  0  0
   30.0772    2.5525   34.9229 H   0  0  0  0  0  0  0  0  0  0  0  0
   28.9812    0.3497   35.8465 H   0  0  0  0  0  0  0  0  0  0  0  0
   30.4102   -0.9157   38.1213 C   0  0  0  0  0  0  0  0  0  0  0  0
   31.2740   -1.2581   39.1782 C   0  0  0  0  0  0  0  0  0  0  0  0
   32.3806   -0.4479   39.4373 C   0  0  0  0  0  0  0  0  0  0  0  0
   32.6386    0.6919   38.6696 C   0  0  0  0  0  0  0  0  0  0  0  0
   33.5040    1.3133   38.8824 H   0  0  0  0  0  0  0  0  0  0  0  0
   33.0634   -0.6917   40.2498 H   0  0  0  0  0  0  0  0  0  0  0  0
   31.0105   -2.4810   40.0248 C   0  0  0  0  0  0  0  0  0  0  0  0
   32.3013   -2.7153   41.2817 S   0  0  0  0  0  0  0  0  0  0  0  0
   33.5668   -3.3306   40.2786 C   0  0  0  0  0  0  0  0  0  0  0  0
   33.1497   -4.2596   39.4067 N   0  0  0  0  0  0  0  0  0  0  0  0
   34.0352   -4.8190   38.5495 C   0  0  0  0  0  0  0  0  0  0  0  0
   33.6376   -5.6304   37.7206 O   0  0  0  0  0  0  0  0  0  0  0  0
   35.3385   -4.4519   38.6588 N   0  0  0  0  0  0  0  0  0  0  0  0
   35.6555   -3.5673   39.5345 C   0  0  0  0  0  0  0  0  0  0  0  0
   37.3422   -3.1290   39.6802 S   0  0  0  0  0  0  0  0  0  0  0  0
   37.4334   -2.1244   38.1754 C   0  0  0  0  0  0  0  0  0  0  0  0
   37.3354   -0.6502   38.4793 C   0  0  0  0  0  0  0  0  0  0  0  0
   36.4009   -0.1821   39.4127 C   0  0  0  0  0  0  0  0  0  0  0  0
   36.3139    1.1774   39.6897 C   0  0  0  0  0  0  0  0  0  0  0  0
   35.4073    1.6128   40.5737 F   0  0  0  0  0  0  0  0  0  0  0  0
   37.1469    2.0935   39.0601 C   0  0  0  0  0  0  0  0  0  0  0  0
   38.1012    1.6503   38.1333 C   0  0  0  0  0  0  0  0  0  0  0  0
   38.1859    0.2747   37.8492 C   0  0  0  0  0  0  0  0  0  0  0  0
   38.9262   -0.0795   37.1308 H   0  0  0  0  0  0  0  0  0  0  0  0
   38.9985    2.6484   37.4454 C   0  0  0  0  0  0  0  0  0  0  0  0
   40.3193    2.3450   37.5757 F   0  0  0  0  0  0  0  0  0  0  0  0
   38.7694    2.7512   36.1066 F   0  0  0  0  0  0  0  0  0  0  0  0
   38.8515    3.9056   37.9466 F   0  0  0  0  0  0  0  0  0  0  0  0
   37.0478    3.1496   39.2998 H   0  0  0  0  0  0  0  0  0  0  0  0
   35.7341   -0.8663   39.9317 H   0  0  0  0  0  0  0  0  0  0  0  0
   36.6266   -2.4056   37.4881 H   0  0  0  0  0  0  0  0  0  0  0  0
   38.3748   -2.3369   37.6552 H   0  0  0  0  0  0  0  0  0  0  0  0
   34.7847   -2.9509   40.3793 N   0  0  0  0  0  0  0  0  0  0  0  0
   32.1829   -4.5347   39.3437 H   0  0  0  0  0  0  0  0  0  0  0  0
   30.0368   -2.3766   40.5177 H   0  0  0  0  0  0  0  0  0  0  0  0
   30.9530   -3.3686   39.3853 H   0  0  0  0  0  0  0  0  0  0  0  0
   29.5411   -1.5335   37.9059 H   0  0  0  0  0  0  0  0  0  0  0  0
  1  2  1  0  0  0  0
  1  5  1  0  0  0  0
  2  3  2  0  0  0  0
  2 11  1  0  0  0  0
  3  4  1  0  0  0  0
  3  8  1  0  0  0  0
  4  5  2  0  0  0  0
  4  7  1  0  0  0  0
  5  6  1  0  0  0  0
  8  9  2  0  0  0  0
  8 44  1  0  0  0  0
  9 10  1  0  0  0  0
  9 14  1  0  0  0  0
 10 11  2  0  0  0  0
 10 13  1  0  0  0  0
 11 12  1  0  0  0  0
 14 15  1  0  0  0  0
 14 42  1  0  0  0  0
 14 43  1  0  0  0  0
 15 16  1  0  0  0  0
 16 17  1  0  0  0  0
 16 40  2  0  0  0  0
 17 18  1  0  0  0  0
 17 41  1  0  0  0  0
 18 19  2  0  0  0  0
 18 20  1  0  0  0  0
 20 21  2  0  0  0  0
 21 22  1  0  0  0  0
 21 40  1  0  0  0  0
 22 23  1  0  0  0  0
 23 24  1  0  0  0  0
 23 38  1  0  0  0  0
 23 39  1  0  0  0  0
 24 25  2  0  0  0  0
 24 30  1  0  0  0  0
 25 26  1  0  0  0  0
 25 37  1  0  0  0  0
 26 27  1  0  0  0  0
 26 28  2  0  0  0  0
 28 29  1  0  0  0  0
 28 36  1  0  0  0  0
 29 30  2  0  0  0  0
 29 32  1  0  0  0  0
 30 31  1  0  0  0  0
 32 33  1  0  0  0  0
 32 34  1  0  0  0  0
 32 35  1  0  0  0  0
M  END
> <Gold.Goldscore.Fitness>
66.0202

> <Gold.Goldscore.External.HBond>
7.1318

> <Gold.Protein.ActiveResidues>
 GLU87   ILE88   VAL90   ASN91   ALA92   ASP94   ASN95   ARG98   ILE118  ASN120 
 LYS123  GLY124  ILE125  ILE141  PHE142  THR147  SER148  SER149  ASN150  LYS157 
 THR159  GLY160  GLY161  ARG162  ASN163  GLY164  TYR165  GLY166  ALA167  LYS168 
 THR215  ILE217  GLN376  ILE33   TYR34   MG903  

> <Gold.Protein.RotatedWaterAtoms>
   32.4470    2.9410   36.3270 O.3 0  0  0  0  0  0  0  0  0  0  0  0  # atno 1    bound_to 2    3    AM1 OFF
   31.8359    3.0941   37.0946 H   0  0  0  0  0  0  0  0  0  0  0  0  # atno 2    bound_to 1    AM1 OFF
   31.9233    2.6242   35.5451 H   0  0  0  0  0  0  0  0  0  0  0  0  # atno 3    bound_to 1    AM1 OFF
   33.1269    2.2507   36.5746 LP  0  0  0  0  0  0  0  0  0  0  0  0  # atno 4    bound_to 1    AM1 OFF
   32.9099    3.7962   36.0938 LP  0  0  0  0  0  0  0  0  0  0  0  0  # atno 5    boun

> <Gold.Goldscore.Internal.HBond>
0.0

> <Gold.Goldscore.Internal.Torsion.Weighted>
-3.561

> <Gold.Protein.RotatedTorsions>
[ 7484 1497 1496 1493 ] final -108.15 input   60.00 | X-H torsion
[ 9179 2997 2996 2994 ] final  -52.84 input   60.00 | X-H torsion
[ 6913  975  974  971 ] final  -82.68 input   60.00 | X-H torsion
[ 6967 1046 1045 1044 ] final  -95.30 input   60.00 | X-H torsion
[ 6909  969  968  965 ] final   98.88 input   59.99 | X-H torsion

> <Gold.Goldscore.Constraint.Score>
0.0

> <Gold.Id.Protein>
1ZXM|1ZXM_protein|mol2

> <Gold.Protein.RotatedAtoms>
   41.4288   -2.0685   38.3092 H   0  0  0  0  0  0  0  0  0  0  0  0  # atno 6909 bound_to 969 
   37.9862   -3.8673   40.5387 H   0  0  0  0  0  0  0  0  0  0  0  0  # atno 6913 bound_to 975 
   40.2006   -9.0468   40.8017 H   0  0  0  0  0  0  0  0  0  0  0  0  # atno 6967 bound_to 1046
   39.1096   -8.3546   39.7634 H   0  0  0  0  0  0  0  0  0  0  0  0  # atno 6968 bound_to 1046
   38.5752   -9.1830   41.0960 H   0  0  0  0  0  0  0  0  0  0  0  0  # atno 6969 bound_to 1046
   28.1768    0.0826   41.7

> <Gold.Version>
5.3.0

> <Gold.Goldscore.Internal.Correction>
4.3684

> <Gold.Goldscore.Internal.Vdw>
0.6917

> <Gold.Goldscore.Internal.Vdw.Weighted>
0.6917

> <Gold.Goldscore.External.HBond.Weighted>
7.1318

> <Gold.Goldscore.External.Vdw.Weighted>
71.1262

> <Gold.Goldscore.Internal.HBond.Weighted>
0.0

> <Gold.Goldscore.Hbonds>
donor molecule, donor type, donor heavy atom, donor atom, acceptor molecule, acceptor atom, score
      P1  H   758  6690      AM2     1  0.87
      L1  H     9    34       P1   757  0.78
     AM2  H     1     2       P1   774  0.92
     AM2  H     1     3       P1  1497  0.99

> <Gold.Goldscore.External.Vdw>
51.7282

> <Gold.Goldscore.Internal.Torsion>
-3.561

> <Gold.Goldscore.Internal.Correction.Weighted>
4.3684

> <Gold.Goldscore.SBar>
-5.0

> <Gold.Version>
5.3.0

> <Gold.Id.Protein>
1ZXM|1ZXM_protein|mol2

> <Gold.ASP.Fitness>
31.7829

> <Gold.ASP.ASP>
36.1100

> <Gold.ASP.Map>
-180.5500

> <Gold.ASP.DEClash>
3.3611

> <Gold.ASP.DEInternal>
0.9660

> <Gold.ASP.Internal.Correction>
0.0967

> <Gold.Protein.RotatedTorsions>
[ 8832 2752 2751 2750 ] final -134.20 input   60.00 | X-H torsion
[ 6909  969  968  965 ] final  168.33 input   59.99 | X-H torsion
[ 6913  975  974  971 ] final   12.11 input   60.00 | X-H torsion
[ 6903  962  961  958 ] final   26.00 input   60.00 | X-H torsion
[ 9081 2997 2996 2994 ] final  146.44 input   60.00 | X-H torsion
[ 7408 1497 1496 1493 ] final  177.25 input   60.00 | X-H torsion
[ 7067 1220 1219 1216 ] final  -80.27 input   60.00 | X-H torsion
[ 6928  995  994  992 ] final  155.83 input   60.00 | X-H torsion

> <Gold.Protein.ActiveResidues>
 GLU87   ILE88   VAL90   ASN91   ALA92   ASP94   ASN95   ARG98   ILE118  ASN120 
 LYS123  GLY124  ILE125  ILE141  PHE142  THR147  SER148  SER149  ASN150  TYR151 
 GLY160  GLY161  ARG162  ASN163  GLY164  TYR165  GLY166  ALA167  LYS168  LEU169 
 THR181  THR215  ILE217  ILE317  GLN376  LYS378  ILE33   TYR34   MG903  

> <Gold.Protein.RotatedAtoms>
   41.2792    3.5218   41.5015 H   0  0  0  0  0  0  0  0  0  0  0  0  # atno 6903 bound_to 962 
   42.4363   -2.3906   38.1717 H   0  0  0  0  0  0  0  0  0  0  0  0  # atno 6909 bound_to 969 
   38.8863   -4.7648   40.0063 H   0  0  0  0  0  0  0  0  0  0  0  0  # atno 6913 bound_to 975 
   45.4765    1.5429   40.2706 H   0  0  0  0  0  0  0  0  0  0  0  0  # atno 6928 bound_to 995 
   27.5409   -0.1907   44.8186 H   0  0  0  0  0  0  0  0  0  0  0  0  # atno 7067 bound_to 1220
   28.3381   -0.8190   41.0967 H   0  0  0  0  0  0  0  0  0  0  0  0  # atno 7408 bound_to 1497
   43.4652   -0.6417   31.0175 H   0  0  0  0  0  0  0  0  0  0  0  0  # atno 8832 bound_to 2752
   44.0668   -0.7127   29.4746 H   0  0  0  0  0  0  0  0  0  0  0  0  # atno 8833 bound_to 2752
   43.4824    0.7190   30.0712 H   0  0  0  0  0  0  0  0  0  0  0  0  # atno 8834 bound_to 2752
   34.3491   -5.1794   45.2446 H   0  0  0  0  0  0  0  0  0  0  0  0  # atno 9081 bound_to 2997
   41.0012   -2.3282   38.9365 LP  0  0  0  0  0  0  0  0  0  0  0  0  # atno 11896 bound_to 969 
   42.2112   -3.2450   39.5383 LP  0  0  0  0  0  0  0  0  0  0  0  0  # atno 11897 bound_to 969 
   37.6391   -3.9965   40.7151 LP  0  0  0  0  0  0  0  0  0  0  0  0  # atno 11898 bound_to 975 
   37.6496   -5.6267   40.6194 LP  0  0  0  0  0  0  0  0  0  0  0  0  # atno 11899 bound_to 975 
   41.7768    4.7892   42.3926 LP  0  0  0  0  0  0  0  0  0  0  0  0  # atno 11904 bound_to 962 
   40.3841    4.0222   42.7650 LP  0  0  0  0  0  0  0  0  0  0  0  0  # atno 11905 bound_to 962 
   34.6274   -4.4787   43.8025 LP  0  0  0  0  0  0  0  0  0  0  0  0  # atno 11912 bound_to 2997
   33.8092   -3.6705   44.9618 LP  0  0  0  0  0  0  0  0  0  0  0  0  # atno 11913 bound_to 2997
   26.7710   -1.0958   41.4366 LP  0  0  0  0  0  0  0  0  0  0  0  0  # atno 11922 bound_to 1497
   27.5295    0.2044   42.0697 LP  0  0  0  0  0  0  0  0  0  0  0  0  # atno 11923 bound_to 1497
   28.5468    0.0491   43.5622 LP  0  0  0  0  0  0  0  0  0  0  0  0  # atno 11930 bound_to 1220
   26.9310    0.0320   43.3265 LP  0  0  0  0  0  0  0  0  0  0  0  0  # atno 11931 bound_to 1220

$$$$
****|SAP-35|sdf|1|dock1
  -GOLD-   9 823 8533D 1   1.00000     0.00000

 44 47  0  0  0  0  0  0  0  0  1 V2000
   28.9040    0.7750   35.7853 S   0  0  0  0  0  0  0  0  0  0  0  0
   30.3399    0.5099   36.7007 C   0  0  0  0  0  0  0  0  0  0  0  0
   31.1226    1.6642   36.7682 C   0  0  0  0  0  0  0  0  0  0  0  0
   30.5152    2.7468   36.0470 C   0  0  0  0  0  0  0  0  0  0  0  0
   29.3176    2.3984   35.4676 C   0  0  0  0  0  0  0  0  0  0  0  0
   28.6643    3.0202   34.8710 H   0  0  0  0  0  0  0  0  0  0  0  0
   30.9478    3.7354   35.9576 H   0  0  0  0  0  0  0  0  0  0  0  0
   32.3400    1.6071   37.4905 C   0  0  0  0  0  0  0  0  0  0  0  0
   32.7610    0.4162   38.1110 C   0  0  0  0  0  0  0  0  0  0  0  0
   31.9505   -0.7166   38.0216 C   0  0  0  0  0  0  0  0  0  0  0  0
   30.7377   -0.6856   37.3266 C   0  0  0  0  0  0  0  0  0  0  0  0
   30.1166   -1.5750   37.2654 H   0  0  0  0  0  0  0  0  0  0  0  0
   32.2546   -1.6500   38.4930 H   0  0  0  0  0  0  0  0  0  0  0  0
   34.0709    0.3582   38.8611 C   0  0  0  0  0  0  0  0  0  0  0  0
   35.0322    1.8850   38.6474 S   0  0  0  0  0  0  0  0  0  0  0  0
   36.5485    1.2029   38.1763 C   0  0  0  0  0  0  0  0  0  0  0  0
   37.4222    2.1125   37.7221 N   0  0  0  0  0  0  0  0  0  0  0  0
   38.6561    1.7184   37.3295 C   0  0  0  0  0  0  0  0  0  0  0  0
   39.4675    2.5617   36.9635 O   0  0  0  0  0  0  0  0  0  0  0  0
   38.9325    0.3886   37.3555 N   0  0  0  0  0  0  0  0  0  0  0  0
   38.0309   -0.4172   37.7886 C   0  0  0  0  0  0  0  0  0  0  0  0
   38.3944   -2.1278   37.7871 S   0  0  0  0  0  0  0  0  0  0  0  0
   36.9937   -2.6438   36.7608 C   0  0  0  0  0  0  0  0  0  0  0  0
   35.7994   -3.0310   37.5968 C   0  0  0  0  0  0  0  0  0  0  0  0
   34.5821   -3.3542   36.9825 C   0  0  0  0  0  0  0  0  0  0  0  0
   33.4839   -3.7104   37.7570 C   0  0  0  0  0  0  0  0  0  0  0  0
   32.3228   -4.0037   37.1580 F   0  0  0  0  0  0  0  0  0  0  0  0
   33.5680   -3.7608   39.1426 C   0  0  0  0  0  0  0  0  0  0  0  0
   34.7784   -3.4572   39.7819 C   0  0  0  0  0  0  0  0  0  0  0  0
   35.8887   -3.0917   38.9984 C   0  0  0  0  0  0  0  0  0  0  0  0
   36.8348   -2.8553   39.4869 H   0  0  0  0  0  0  0  0  0  0  0  0
   34.8642   -3.5050   41.2870 C   0  0  0  0  0  0  0  0  0  0  0  0
   35.8054   -4.3821   41.7322 F   0  0  0  0  0  0  0  0  0  0  0  0
   35.1759   -2.3049   41.8508 F   0  0  0  0  0  0  0  0  0  0  0  0
   33.6908   -3.8921   41.8585 F   0  0  0  0  0  0  0  0  0  0  0  0
   32.6871   -4.0406   39.7156 H   0  0  0  0  0  0  0  0  0  0  0  0
   34.4756   -3.3324   35.9008 H   0  0  0  0  0  0  0  0  0  0  0  0
   37.2839   -3.4932   36.1309 H   0  0  0  0  0  0  0  0  0  0  0  0
   36.7243   -1.8279   36.0798 H   0  0  0  0  0  0  0  0  0  0  0  0
   36.7984   -0.0508   38.2344 N   0  0  0  0  0  0  0  0  0  0  0  0
   37.2018    3.0950   37.6940 H   0  0  0  0  0  0  0  0  0  0  0  0
   33.8703    0.2004   39.9273 H   0  0  0  0  0  0  0  0  0  0  0  0
   34.6583   -0.4991   38.5147 H   0  0  0  0  0  0  0  0  0  0  0  0
   32.9596    2.4995   37.5471 H   0  0  0  0  0  0  0  0  0  0  0  0
  1  2  1  0  0  0  0
  1  5  1  0  0  0  0
  2  3  2  0  0  0  0
  2 11  1  0  0  0  0
  3  4  1  0  0  0  0
  3  8  1  0  0  0  0
  4  5  2  0  0  0  0
  4  7  1  0  0  0  0
  5  6  1  0  0  0  0
  8  9  2  0  0  0  0
  8 44  1  0  0  0  0
  9 10  1  0  0  0  0
  9 14  1  0  0  0  0
 10 11  2  0  0  0  0
 10 13  1  0  0  0  0
 11 12  1  0  0  0  0
 14 15  1  0  0  0  0
 14 42  1  0  0  0  0
 14 43  1  0  0  0  0
 15 16  1  0  0  0  0
 16 17  1  0  0  0  0
 16 40  2  0  0  0  0
 17 18  1  0  0  0  0
 17 41  1  0  0  0  0
 18 19  2  0  0  0  0
 18 20  1  0  0  0  0
 20 21  2  0  0  0  0
 21 22  1  0  0  0  0
 21 40  1  0  0  0  0
 22 23  1  0  0  0  0
 23 24  1  0  0  0  0
 23 38  1  0  0  0  0
 23 39  1  0  0  0  0
 24 25  2  0  0  0  0
 24 30  1  0  0  0  0
 25 26  1  0  0  0  0
 25 37  1  0  0  0  0
 26 27  1  0  0  0  0
 26 28  2  0  0  0  0
 28 29  1  0  0  0  0
 28 36  1  0  0  0  0
 29 30  2  0  0  0  0
 29 32  1  0  0  0  0
 30 31  1  0  0  0  0
 32 33  1  0  0  0  0
 32 34  1  0  0  0  0
 32 35  1  0  0  0  0
M  END
> <Gold.Goldscore.Fitness>
66.0202

> <Gold.Goldscore.External.HBond>
7.1318

> <Gold.Protein.ActiveResidues>
 GLU87   ILE88   VAL90   ASN91   ALA92   ASP94   ASN95   ARG98   ILE118  ASN120 
 LYS123  GLY124  ILE125  ILE141  PHE142  THR147  SER148  SER149  ASN150  LYS157 
 THR159  GLY160  GLY161  ARG162  ASN163  GLY164  TYR165  GLY166  ALA167  LYS168 
 THR215  ILE217  GLN376  ILE33   TYR34   MG903  

> <Gold.Protein.RotatedWaterAtoms>
   32.4470    2.9410   36.3270 O.3 0  0  0  0  0  0  0  0  0  0  0  0  # atno 1    bound_to 2    3    AM1 OFF
   31.8359    3.0941   37.0946 H   0  0  0  0  0  0  0  0  0  0  0  0  # atno 2    bound_to 1    AM1 OFF
   31.9233    2.6242   35.5451 H   0  0  0  0  0  0  0  0  0  0  0  0  # atno 3    bound_to 1    AM1 OFF
   33.1269    2.2507   36.5746 LP  0  0  0  0  0  0  0  0  0  0  0  0  # atno 4    bound_to 1    AM1 OFF
   32.9099    3.7962   36.0938 LP  0  0  0  0  0  0  0  0  0  0  0  0  # atno 5    boun

> <Gold.Goldscore.Internal.HBond>
0.0

> <Gold.Goldscore.Internal.Torsion.Weighted>
-3.561

> <Gold.Protein.RotatedTorsions>
[ 7484 1497 1496 1493 ] final -108.15 input   60.00 | X-H torsion
[ 9179 2997 2996 2994 ] final  -52.84 input   60.00 | X-H torsion
[ 6913  975  974  971 ] final  -82.68 input   60.00 | X-H torsion
[ 6967 1046 1045 1044 ] final  -95.30 input   60.00 | X-H torsion
[ 6909  969  968  965 ] final   98.88 input   59.99 | X-H torsion

> <Gold.Goldscore.Constraint.Score>
0.0

> <Gold.Id.Protein>
1ZXM|1ZXM_protein|mol2

> <Gold.Protein.RotatedAtoms>
   41.4288   -2.0685   38.3092 H   0  0  0  0  0  0  0  0  0  0  0  0  # atno 6909 bound_to 969 
   37.9862   -3.8673   40.5387 H   0  0  0  0  0  0  0  0  0  0  0  0  # atno 6913 bound_to 975 
   40.2006   -9.0468   40.8017 H   0  0  0  0  0  0  0  0  0  0  0  0  # atno 6967 bound_to 1046
   39.1096   -8.3546   39.7634 H   0  0  0  0  0  0  0  0  0  0  0  0  # atno 6968 bound_to 1046
   38.5752   -9.1830   41.0960 H   0  0  0  0  0  0  0  0  0  0  0  0  # atno 6969 bound_to 1046
   28.1768    0.0826   41.7

> <Gold.Version>
5.3.0

> <Gold.Goldscore.Internal.Correction>
4.3684

> <Gold.Goldscore.Internal.Vdw>
0.6917

> <Gold.Goldscore.Internal.Vdw.Weighted>
0.6917

> <Gold.Goldscore.External.HBond.Weighted>
7.1318

> <Gold.Goldscore.External.Vdw.Weighted>
71.1262

> <Gold.Goldscore.Internal.HBond.Weighted>
0.0

> <Gold.Goldscore.Hbonds>
donor molecule, donor type, donor heavy atom, donor atom, acceptor molecule, acceptor atom, score
      P1  H   758  6690      AM2     1  0.87
      L1  H     9    34       P1   757  0.78
     AM2  H     1     2       P1   774  0.92
     AM2  H     1     3       P1  1497  0.99

> <Gold.Goldscore.External.Vdw>
51.7282

> <Gold.Goldscore.Internal.Torsion>
-3.561

> <Gold.Goldscore.Internal.Correction.Weighted>
4.3684

> <Gold.Goldscore.SBar>
-5.0

> <Gold.Version>
5.3.0

> <Gold.Id.Protein>
1ZXM|1ZXM_protein|mol2

> <Gold.ASP.Fitness>
31.2395

> <Gold.ASP.ASP>
37.2300

> <Gold.ASP.Map>
-186.1500

> <Gold.ASP.DEClash>
5.3753

> <Gold.ASP.DEInternal>
0.6152

> <Gold.ASP.Internal.Correction>
0.1466

> <Gold.Protein.RotatedTorsions>
[ 8832 2752 2751 2750 ] final  121.40 input   60.00 | X-H torsion
[ 6909  969  968  965 ] final  141.28 input   59.99 | X-H torsion
[ 6913  975  974  971 ] final  111.83 input   60.00 | X-H torsion
[ 6903  962  961  958 ] final   91.01 input   60.00 | X-H torsion
[ 9081 2997 2996 2994 ] final  138.44 input   60.00 | X-H torsion
[ 7408 1497 1496 1493 ] final  -13.67 input   60.00 | X-H torsion
[ 7067 1220 1219 1216 ] final -128.71 input   60.00 | X-H torsion
[ 6928  995  994  992 ] final -110.66 input   60.00 | X-H torsion

> <Gold.Protein.ActiveResidues>
 GLU87   ILE88   VAL90   ASN91   ALA92   ASP94   ASN95   ARG98   ILE118  ASN120 
 LYS123  GLY124  ILE125  ILE141  PHE142  THR147  SER148  SER149  ASN150  TYR151 
 GLY160  GLY161  ARG162  ASN163  GLY164  TYR165  GLY166  ALA167  LYS168  LEU169 
 THR181  THR215  ILE217  ILE317  GLN376  LYS378  ILE33   TYR34   MG903  

> <Gold.Protein.RotatedAtoms>
   40.4797    3.4622   42.1093 H   0  0  0  0  0  0  0  0  0  0  0  0  # atno 6903 bound_to 962 
   42.0604   -2.1802   38.0924 H   0  0  0  0  0  0  0  0  0  0  0  0  # atno 6909 bound_to 969 
   37.9276   -5.7224   40.4676 H   0  0  0  0  0  0  0  0  0  0  0  0  # atno 6913 bound_to 975 
   46.8266    1.5294   40.0777 H   0  0  0  0  0  0  0  0  0  0  0  0  # atno 6928 bound_to 995 
   28.2783   -0.1311   44.6121 H   0  0  0  0  0  0  0  0  0  0  0  0  # atno 7067 bound_to 1220
   26.8539   -0.1840   42.0283 H   0  0  0  0  0  0  0  0  0  0  0  0  # atno 7408 bound_to 1497
   43.3960    0.6958   30.3149 H   0  0  0  0  0  0  0  0  0  0  0  0  # atno 8832 bound_to 2752
   43.5635   -0.8481   30.8943 H   0  0  0  0  0  0  0  0  0  0  0  0  # atno 8833 bound_to 2752
   44.0549   -0.4831   29.3541 H   0  0  0  0  0  0  0  0  0  0  0  0  # atno 8834 bound_to 2752
   34.4135   -5.2367   45.1466 H   0  0  0  0  0  0  0  0  0  0  0  0  # atno 9081 bound_to 2997
   41.0379   -2.5882   39.2908 LP  0  0  0  0  0  0  0  0  0  0  0  0  # atno 11896 bound_to 969 
   42.5530   -3.1968   39.2638 LP  0  0  0  0  0  0  0  0  0  0  0  0  # atno 11897 bound_to 969 
   38.8374   -4.4402   40.0478 LP  0  0  0  0  0  0  0  0  0  0  0  0  # atno 11898 bound_to 975 
   37.4168   -4.2186   40.8221 LP  0  0  0  0  0  0  0  0  0  0  0  0  # atno 11899 bound_to 975 
   41.8812    4.1338   41.6269 LP  0  0  0  0  0  0  0  0  0  0  0  0  # atno 11904 bound_to 962 
   41.0850    4.7377   42.9185 LP  0  0  0  0  0  0  0  0  0  0  0  0  # atno 11905 bound_to 962 
   34.5807   -4.3568   43.7880 LP  0  0  0  0  0  0  0  0  0  0  0  0  # atno 11912 bound_to 2997
   33.7911   -3.7348   45.0750 LP  0  0  0  0  0  0  0  0  0  0  0  0  # atno 11913 bound_to 2997
   28.4006   -0.1683   41.5228 LP  0  0  0  0  0  0  0  0  0  0  0  0  # atno 11922 bound_to 1497
   27.3945   -1.3626   41.0451 LP  0  0  0  0  0  0  0  0  0  0  0  0  # atno 11923 bound_to 1497
   27.9894    0.1175   43.0302 LP  0  0  0  0  0  0  0  0  0  0  0  0  # atno 11930 bound_to 1220
   26.7457   -0.0965   44.0665 LP  0  0  0  0  0  0  0  0  0  0  0  0  # atno 11931 bound_to 1220

$$$$
